     6
  Step:   300            Position(A)                                  Velocity(au)
C        -0.04059825     0.01334710     0.02393031     0.00001648     0.00002050     0.00011996
N        -0.04384243    -0.05158587     1.29117985    -0.00006147    -0.00000282    -0.00011095
H         0.13427577    -0.91626959    -0.53104783    -0.00193666    -0.00019056    -0.00038595
H        -0.01211074     0.78211114     1.88231703    -0.00179167    -0.00031105     0.00056324
H        -0.02842286    -0.95467596     1.78466330     0.00247331     0.00017720     0.00056889
H        -0.21367860     0.97688543    -0.47174790     0.00191288     0.00011936    -0.00063386
