     6
  Step:   600            Position(A)                                  Velocity(au)
C        -0.13203491     0.13462788     0.08641920     0.00040722    -0.00059745     0.00217729
N        -0.00596883    -0.14043235     1.28323340    -0.00083084     0.00083909    -0.00122397
H         0.20521738     1.12802944    -0.20638093     0.00070693     0.00363017    -0.00299306
H        -0.58054597    -1.09095442     1.51683724     0.00707581     0.00026069    -0.00369650
H         0.91026259     0.31088549     1.47677782     0.00114400    -0.00501726     0.00114806
H        -0.09191833    -0.67040002    -0.75657880    -0.00223356    -0.00341461    -0.00339429
