6

C   -0.03177023    0.00692334    0.00538592   -0.00012172    0.00019611   -0.00029301
N   -0.03698395   -0.04847810    1.30521725   -0.00011666   -0.00018010    0.00017456
H    0.90811036    0.01143614   -0.53316423    0.00051038   -0.00066088   -0.00033902
H    0.75486137   -0.13417556    1.85510773    0.00099275    0.00079685    0.00100610
H   -0.96064295   -0.09554490    1.85666676    0.00058055    0.00055588   -0.00038671
H   -1.02274903    0.13967602   -0.48850594    0.00098796   -0.00052599    0.00078544
