     6
  Step:   600            Position(A)                                  Velocity(au)
C        -0.14952431    -0.04038241    -0.17545619    -0.00004535    -0.00014303     0.00044402
N         0.03175231    -0.04566727     1.47923667     0.00022591     0.00039739    -0.00034659
H        -0.22808090     1.05707282    -0.50462473    -0.00229254     0.00090069     0.00292196
H        -0.18809058    -0.85000566     2.06421332    -0.00443675    -0.00325030    -0.00448207
H         0.75209731     0.89826343     2.20431621     0.00160081    -0.00014442    -0.00220450
H        -0.20870044    -0.65898854    -1.33699688     0.00252952    -0.00132380     0.00329004
