6

C       -0.02936489     0.09192442    -0.00004874
N       -0.04838223    -0.03946803     1.33349147
H        0.76832066    -0.52412107    -0.59381727
H        0.86189860    -0.09868598     1.82269638
H       -0.89411866    -0.45821840     1.80138055
H       -0.92678751    -0.13567609    -0.66831032
