12

C       -0.04467434     0.06509970     0.01909039
N       -0.03434988    -0.03046683     1.31294639
H        0.83335541     0.11217850    -0.68570041
H        0.61600530    -0.72334576     1.75484144
H       -0.87590132     0.20109233     1.89809530
H       -0.77671721    -0.61205933    -0.54784652
C       -0.04566853     0.06517532     0.01857063
N       -0.03385419    -0.03096877     1.31313840
H        0.83564683     0.12011817    -0.68253727
H        0.61230507    -0.72840469     1.75571884
H       -0.87319105     0.21077335     1.89676233
H       -0.77305998    -0.61854703    -0.54702873
