6

C       -0.04566853     0.06517532     0.01857063
N       -0.03385419    -0.03096877     1.31313840
H        0.83564683     0.12011817    -0.68253727
H        0.61230507    -0.72840469     1.75571884
H       -0.87319105     0.21077335     1.89676233
H       -0.77305998    -0.61854703    -0.54702873
