     6
  Step:   300            Position(A)                                  Velocity(au)
C        -0.02077397     0.02472465     0.02741189    -0.00007391     0.00009377    -0.00001026
N        -0.04127564    -0.05435932     1.29109300     0.00025035    -0.00004417     0.00000794
H         0.26040431     0.92104114    -0.53227617    -0.00083896    -0.00002376    -0.00071399
H        -0.18801927    -0.96924175     1.73388451    -0.00232568     0.00033306     0.00031392
H        -0.19306085     0.73809689     1.91639524    -0.00038880    -0.00045982     0.00028262
H        -0.27113093    -0.89889979    -0.49408081     0.00095512    -0.00035306     0.00012931
