14

C       -5.44990723     0.11626284     0.62158764
C       -4.41658699    -0.52958624     0.05854278
H       -5.86935897     0.90727786     0.07649766
H       -5.78469084    -0.15424682     1.50648755
H       -3.98126280    -1.46239390     0.43447439
C       -3.68396119     0.02537162    -1.20214479
C       -2.72295695     0.91883353    -0.73751121
H       -4.14572648     0.04752698    -2.16179942
H       -2.24631196     1.33078301    -1.55138493
C       -2.24555590     1.25904299     0.64911998
H       -3.02751875     1.40308835     1.45856773
N       -0.97449970     1.19025965     0.79171524
H       -0.47387597     1.59856642     1.59520432
H       -0.22890827     1.10074561    -0.07235335
