6

C       -0.02707115     0.02832254     0.02579692
N       -0.02896499    -0.06427440     1.29178129
H        0.10694692     0.93798860    -0.54833831
H       -0.47612576    -0.86190571     1.76197867
H       -0.02045350     0.70912174     1.96130939
H       -0.09820712    -0.89929910    -0.54135461
