6

C        0.03644056     0.09795676     0.00954613
N       -0.17137765    -0.16089459     1.28237818
H       -0.02877677     1.26042624    -0.45411733
H       -0.00121280    -1.04310003     1.81877774
H        0.27906672     0.89986710     1.96241667
H        0.48528772    -0.71838849    -0.36946644
