     6
  Step:   120            Position(A)                                  Velocity(au)
C        -0.03120973     0.04216221    -0.07274595     0.00002852    -0.00005004     0.00070282
N        -0.04763073    -0.04656850     1.38450631    -0.00007301     0.00003101    -0.00061261
H         0.73260223    -0.55190998    -0.64566940    -0.00112049    -0.00133057     0.00042205
H         0.74574426     0.27330957     1.99506448    -0.00062207     0.00138834    -0.00013649
H        -0.76122624    -0.68228121     1.83781977     0.00157752    -0.00120450    -0.00068330
H        -0.89627728     0.43582400    -0.66790734     0.00083973     0.00131200     0.00053586
