     6
  Step:   120            Position(A)                                  Velocity(au)
C        -0.04828840     0.09232437    -0.02285728    -0.00009145     0.00011686    -0.00000262
N        -0.04756737    -0.09332623     1.34649685    -0.00002272    -0.00004803    -0.00011608
H         0.91065782     0.04724489    -0.64407278     0.00006790     0.00061392     0.00044138
H         0.81798610    -0.36838662     1.84435636    -0.00062256    -0.00101836     0.00001134
H        -0.85398016     0.32842710     1.87496185     0.00091542     0.00115014     0.00034073
H        -0.85117016    -0.48031661    -0.62222093     0.00104463    -0.00147083     0.00085084
