14

C       -5.15840951    -1.30064127     0.73776341
C       -5.04075467    -0.14152422    -0.07951330
H       -4.39580301    -1.70217702     1.50805761
H       -5.92812892    -1.99042424     0.31106163
H       -5.83362945    -0.02350851    -0.74778986
C       -4.01164110     0.78598044    -0.62851402
C       -2.69751855     0.61526896    -0.48078412
H       -4.31247347     1.81153625    -1.00899809
H       -2.41925190    -0.27616724     0.18910566
C       -1.56242771     1.60659751    -0.30700653
H       -1.07229707     2.38703208    -0.93467187
N       -1.03358666     1.51296126     0.87527476
H       -0.20346021     2.04995670     1.15039093
H       -1.34600542     0.70321536     1.41678357
