    14
  Step:   600            Position(A)                                  Velocity(au)
C        -5.13301830    -1.45828579    -0.47524684     0.00013837     0.00000128    -0.00009974
C        -5.03061157    -0.15961689     0.05787165    -0.00013889    -0.00002441     0.00025056
H        -4.17268780    -2.00995408    -0.17931290    -0.00092041     0.00087899     0.00123951
H        -6.00810439    -1.74119908    -0.98062539    -0.00033424     0.00003669    -0.00031868
H        -5.90540970     0.56708233    -0.24761585     0.00160612     0.00057546     0.00149524
C        -4.05690395     0.82959129     0.48524023    -0.00124963    -0.00039794     0.00010993
C        -2.85911655     1.65698708     0.53173420    -0.00027272     0.00006229    -0.00034636
H        -4.87510039     1.40938026     1.13578058     0.00218852    -0.00091490    -0.00137210
H        -2.84172090     2.53563126     1.13364690     0.00301791     0.00005909    -0.00095614
C        -1.85232973     1.05017951    -0.25700384     0.00085090     0.00035970     0.00016209
H        -2.16248694     0.27696321    -0.98913736    -0.00003405     0.00111369    -0.00090658
N        -0.59346698     1.17166127     0.04532257     0.00022731    -0.00008640     0.00002246
H         0.17548071     0.63439007    -0.32961731     0.00055364     0.00114644    -0.00115287
H        -0.34168676     1.82118127     0.75847674    -0.00122902    -0.00170582     0.00074817
