12

C       -0.03655560     0.06395243    -0.19293681
N       -0.03434144    -0.01356233     1.49342941
H        0.93663438     0.02316692    -0.71237855
H        0.70140361    -0.69965709     1.82817565
H       -0.97023134    -0.18381075     1.92934994
H       -0.96791239    -0.38307242    -0.60725133
C       -0.03658044     0.06394713    -0.19165331
N       -0.03434479    -0.01245935     1.49287831
H        0.93645734     0.02796603    -0.71159935
H        0.69515464    -0.71200549     1.82154588
H       -0.96512948    -0.18221865     1.92538504
H       -0.96624579    -0.39237950    -0.60507171
