     6
  Step:     0            Position(A)                                  Velocity(au)
C        -0.04238395     0.00426555     0.00225514     0.00002250     0.00000122     0.00022497
N        -0.04290503    -0.06228477     1.31020625    -0.00016145    -0.00006734    -0.00022287
H         0.94361432     0.06657606    -0.53071116     0.00051467    -0.00001396    -0.00073060
H         0.85193469    -0.07188808     1.92631153     0.00004148     0.00058934     0.00078362
H        -0.89015621     0.02536498     1.79655776     0.00151115     0.00017574     0.00002941
H        -1.01705730     0.12487223    -0.53407645    -0.00009183     0.00017015     0.00033390
     6
  Step:     1            Position(A)                                  Velocity(au)
C        -0.04209369     0.00429247     0.00442712     0.00003233     0.00000415     0.00016746
N        -0.04437792    -0.06307131     1.30804136    -0.00010288    -0.00007725    -0.00017129
H         0.94890715     0.06652188    -0.53925965     0.00042868     0.00000204    -0.00081580
H         0.85051403    -0.06538720     1.93361977    -0.00030948     0.00059869     0.00053752
H        -0.87621876     0.02765017     1.79888056     0.00097825     0.00025017     0.00042723
H        -1.01785774     0.12674992    -0.53095632    -0.00005314     0.00017325     0.00023584
     6
  Step:     2            Position(A)                                  Velocity(au)
C        -0.04167657     0.00435626     0.00591869     0.00004505     0.00000793     0.00010170
N        -0.04515563    -0.06397481     1.30645902    -0.00003846    -0.00008837    -0.00011606
H         0.95299249     0.06662058    -0.54855841     0.00029892     0.00001420    -0.00086927
H         0.84516422    -0.05879056     1.93807078    -0.00066260     0.00060664     0.00027216
H        -0.86875504     0.03083783     1.80590418     0.00037272     0.00033632     0.00086119
H        -1.01821994     0.12866244    -0.52891706    -0.00001142     0.00017636     0.00013691
     6
  Step:     3            Position(A)                                  Velocity(au)
C        -0.04110814     0.00446595     0.00665192     0.00005934     0.00001250     0.00003015
N        -0.04521927    -0.06500453     1.30550232     0.00002342    -0.00009991    -0.00005651
H         0.95544664     0.06683259    -0.55827657     0.00013606     0.00002296    -0.00089456
H         0.83601840    -0.05211584     1.93957385    -0.00098958     0.00061314     0.00000975
H        -0.86806478     0.03500787     1.81772068    -0.00021275     0.00042424     0.00127256
H        -1.01810758     0.13060819    -0.52796106     0.00003365     0.00017920     0.00003838
     6
  Step:     4            Position(A)                                  Velocity(au)
C        -0.04037834     0.00462961     0.00657819     0.00007395     0.00001774    -0.00004435
N        -0.04464321    -0.06616057     1.30522267     0.00007497    -0.00011109     0.00000757
H         0.95596908     0.06712291    -0.56812866    -0.00004848     0.00002871    -0.00089620
H         0.82351518    -0.04537692     1.93828408    -0.00126231     0.00061897    -0.00022661
H        -0.87340934     0.04011885     1.83374378    -0.00069404     0.00050322     0.00160468
H        -1.01748374     0.13258284    -0.52807751     0.00008177     0.00018157    -0.00005864
     6
  Step:     5            Position(A)                                  Velocity(au)
C        -0.03949027     0.00485400     0.00568171     0.00008778     0.00002352    -0.00011870
N        -0.04357914    -0.06743494     1.30566800     0.00011036    -0.00012132     0.00007498
H         0.95438609     0.06746077    -0.57788274    -0.00024325     0.00003182    -0.00087929
H         0.80840289    -0.03857461     1.93461623    -0.00145225     0.00062581    -0.00041263
H        -0.88324813     0.04601673     1.85282615    -0.00101601     0.00056462     0.00181755
H        -1.01631864     0.13458046    -0.52924397     0.00013191     0.00018338    -0.00015317
     6
  Step:     6            Position(A)                                  Velocity(au)
C        -0.03845797     0.00514419     0.00398151     0.00009995     0.00002968    -0.00018972
N        -0.04222888    -0.06881465     1.30686296     0.00012630    -0.00013031     0.00014274
H         0.95064760     0.06781911    -0.58736482    -0.00043724     0.00003260    -0.00084922
H         0.79174448    -0.03168603     1.92925694    -0.00153155     0.00063635    -0.00052391
H        -0.89563648     0.05247095     1.87350608    -0.00115959     0.00060355     0.00189467
H        -1.01459794     0.13659466    -0.53142833     0.00018230     0.00018464    -0.00024440
     6
  Step:     7            Position(A)                                  Velocity(au)
C        -0.03730367     0.00550333     0.00153112     0.00010983     0.00003604    -0.00025442
N        -0.04081615    -0.07028567     1.30879081     0.00012186    -0.00013812     0.00020674
H         0.94482055     0.06817394    -0.59646097    -0.00062012     0.00003130    -0.00081151
H         0.77489734    -0.02465323     1.92315476    -0.00147682     0.00065420    -0.00053917
H        -0.90861645     0.05922061     1.89427564    -0.00113585     0.00061905     0.00184106
H        -1.01233039     0.13861989    -0.53459067     0.00023059     0.00018548    -0.00033168
     6
  Step:     8            Position(A)                                  Velocity(au)
C        -0.03605522     0.00593253    -0.00158435     0.00011701     0.00004240    -0.00031013
N        -0.03956288    -0.07183634     1.31138582     0.00009811    -0.00014507     0.00026278
H         0.93708119     0.06850376    -0.60511819    -0.00078226     0.00002812    -0.00077176
H         0.75943619    -0.01737407     1.91746162    -0.00127569     0.00068346    -0.00044581
H        -0.92048540     0.06601376     1.91378284    -0.00097371     0.00061302     0.00167584
H        -1.00955334     0.14065246    -0.53868456     0.00027403     0.00018610    -0.00041446
     6
  Step:     9            Position(A)                                  Velocity(au)
C        -0.03474389     0.00643091    -0.00525350     0.00012125     0.00004861    -0.00035481
N        -0.03866983    -0.07345929     1.31453962     0.00005780    -0.00015155     0.00030782
H         0.92770711     0.06878907    -0.61334474    -0.00091489     0.00002327    -0.00073545
H         0.74698917    -0.00970121     1.91340175    -0.00093441     0.00072768    -0.00024644
H        -0.92991819     0.07263159     1.93093787    -0.00070855     0.00058908     0.00142439
H        -1.00633543     0.14269111    -0.54365787     0.00030981     0.00018673    -0.00049217
