6

C   -0.03628599    0.00832654    0.00638146    0.00005630    0.00015225    0.00010860
N   -0.04804128   -0.05455891    1.31721746   -0.00033258   -0.00017007   -0.00004658
H    0.95631614    0.07456281   -0.57046100    0.00037376   -0.00028251   -0.00022672
H    0.89243422   -0.07242293    1.78945681    0.00144209    0.00051920   -0.00000025
H   -0.97059549   -0.10820171    1.82595037    0.00213254    0.00094623   -0.00032297
H   -0.99110802    0.09523440   -0.53346451    0.00000240   -0.00063370   -0.00009682
