     6
  Step:   120            Position(A)                                  Velocity(au)
C        -0.03448307     0.03131408    -0.03616603    -0.00005464     0.00002846     0.00054903
N        -0.03003923    -0.01206561     1.36293882     0.00005117    -0.00005978    -0.00051946
H         0.82064012     0.37627678    -0.67457812    -0.00059850     0.00124500     0.00049384
H         0.51604754    -0.83623656     1.71734011    -0.00110289    -0.00101871    -0.00022252
H        -0.89924577     0.11948747     1.94934640     0.00057155     0.00164381    -0.00020983
H        -0.82204539    -0.53478551    -0.60897627     0.00106990    -0.00137848     0.00061483
