14

C       -5.30915982    -1.07739228    -0.65115948
C       -4.57546137     0.00178046    -0.34983710
H       -6.14442212    -1.49560742    -0.08232260
H       -5.18182048    -1.47836058    -1.61299014
H       -3.89054585     0.25554028    -1.16342119
C       -4.09641793     0.76761899     0.89569296
C       -2.65297492     0.81059409     1.20363898
H       -4.71659205     0.89736814     1.82993835
H       -2.22829104     1.05207577     2.19497549
C       -1.89980098     0.82499622    -0.00713914
H       -2.49483077     0.29353039    -0.83663688
N       -0.97147772     1.69354536    -0.49326353
H       -0.83310963     1.57982046    -1.54398347
H       -0.13373555     2.18272418     0.07981159
