6

C       -0.03041911     0.02947149     0.01619137
N       -0.05236833    -0.07380957     1.29826491
H        0.91789061    -0.04492108    -0.50316902
H        0.80468696     0.02057910     1.84796306
H       -0.90000037    -0.12275600     1.86780350
H       -0.94530469     0.15183519    -0.55464426
