6

C       -0.04005610     0.01339644     0.02348271
N       -0.04209180    -0.05900133     1.29363125
H        0.88430466     0.02657062    -0.54539029
H        0.80621324    -0.10150161     1.86190345
H       -0.88421125     0.00169745     1.87812429
H       -0.95700400     0.06372759    -0.55917166
