     6
  Step:   120            Position(A)                                  Velocity(au)
C        -0.03980031     0.01981234     0.01173506     0.00003566     0.00001263     0.00030035
N        -0.04972256    -0.02545971     1.32105805    -0.00007987    -0.00005677    -0.00028496
H         0.75124086    -0.44792827    -0.64176475    -0.00058215    -0.00132126     0.00032428
H         0.78844036     0.13388282     1.92849065    -0.00012418     0.00157895    -0.00019574
H        -0.75940580    -0.65789096     1.79385361     0.00088414    -0.00085050    -0.00034871
H        -0.82799443     0.41987444    -0.68626407     0.00050715     0.00123110     0.00060108
