6

C       -0.03599185     0.07555180    -0.11280024
N       -0.03940077     0.01124976     1.42550599
H        0.89955163    -0.36762825    -0.47638972
H        0.77063086    -0.55659149     1.69977847
H       -0.91378865    -0.52079054     1.69120141
H       -0.99293855    -0.28138852    -0.48776827
