6

C       -0.02121770     0.00323829     0.02314639
N       -0.04649884    -0.05547461     1.29277567
H        0.19352919    -0.85884623    -0.61313266
H       -0.07492745     0.82418935     1.81883002
H       -0.24984412    -0.90129522     1.82759550
H       -0.18271633     0.99848246    -0.38191706
