12

C       -0.03631497    -0.01093147    -0.19749150
N       -0.05072190    -0.12626569     1.49152386
H        0.87244338     0.54515741    -0.58898068
H        0.83948324     0.03170398     1.98421040
H       -0.78262665     0.56700978     1.84309658
H       -1.00465247     0.07125039    -0.71969039
C       -0.03610517    -0.01174722    -0.19655807
N       -0.05142327    -0.12656201     1.49075591
H        0.86872859     0.55618576    -0.58440260
H        0.84226002     0.02888909     1.98432106
H       -0.77424170     0.57528334     1.83804022
H       -1.00485288     0.06860178    -0.71977370
