14

C       -5.27358882    -0.73308104     0.90899078
C       -4.80375452    -0.46574735    -0.32704016
H       -5.35155737     0.15744688     1.56291316
H       -5.71714416    -1.76616313     1.10456517
H       -5.14237599    -1.18440169    -1.12228583
C       -4.17285150     0.73545262    -0.81537619
C       -2.93612140     1.33128474    -0.51251945
H       -4.79710929     1.25562061    -1.68574298
H       -2.75725334     1.96549199    -1.44711484
C       -1.89149831     1.08712464     0.48534598
H       -2.33669734     0.48073863     1.24720547
N       -0.48400520     1.16324081     0.52676802
H        0.00498337     1.36629567     1.41565096
H        0.18104239     0.90460398    -0.27714234
