6

C   -0.04219558    0.03503401    0.04189259   -0.00012241   -0.00005194   -0.00007892
N   -0.05047669   -0.07698469    1.28014826   -0.00012515    0.00004062    0.00001845
H    0.89990785   -0.06006260   -0.52957986    0.00058401    0.00033916   -0.00001118
H    0.88808057   -0.03118350    1.86261676    0.00138070   -0.00028690    0.00034730
H   -0.87571302    0.04429501    1.79704911    0.00029243   -0.00001475    0.00000638
H   -0.92096577    0.02951277   -0.52662971    0.00094070    0.00001703    0.00034146
