    14
  Step:   600            Position(A)                                  Velocity(au)
C        -5.99545646    -1.03925935    -0.01862010    -0.00041639    -0.00060241    -0.00039888
C        -4.74601428    -0.60269062    -0.02886792    -0.00063106    -0.00005160     0.00036404
H        -6.91487442    -0.38669176    -0.04015994    -0.00030827    -0.00249540    -0.00268215
H        -6.14870093    -2.07504028     0.16948606    -0.00138775    -0.00090378    -0.00053064
H        -3.96571096    -1.37226482    -0.09162090     0.00003460     0.00032003     0.00312342
C        -4.04578523     0.75307306     0.09450725     0.00029894     0.00045947     0.00020504
C        -2.68490110     0.47100876     0.09833425    -0.00075462     0.00020593    -0.00011957
H        -4.54748238     1.72067539    -0.20167400    -0.00100158    -0.00034547    -0.00097113
H        -2.57076515    -0.62271380    -0.08275782     0.00177449    -0.00098430     0.00055179
C        -1.68590206     1.52672542     0.28701574     0.00080479     0.00011281     0.00040549
H        -1.96444159     2.47824785     0.72659997     0.00254513    -0.00044128     0.00058813
N        -0.40472439     1.82254910    -0.00784925     0.00061077     0.00004202    -0.00021761
H        -0.16592900     2.78999953     0.31325869    -0.00016226     0.00059257     0.00055287
H         0.21758252     1.56906944    -0.82202991    -0.00166033     0.00219375    -0.00304343
