     6
  Step:   300            Position(A)                                  Velocity(au)
C        -0.02438616     0.03158860     0.03020876    -0.00002763    -0.00000701    -0.00006250
N        -0.03115689    -0.06226944     1.28660903     0.00008370    -0.00006588     0.00007127
H         0.15289937     0.93846413    -0.54290176    -0.00159812    -0.00001501    -0.00018959
H        -0.39000410    -0.91759503     1.75471764    -0.00216847     0.00102616     0.00017602
H        -0.11433090     0.70433353     1.95709093     0.00117059    -0.00013264     0.00032349
H        -0.13795654    -0.90609699    -0.51600484     0.00176212     0.00012055    -0.00055561
