14

C       -5.83974880    -0.88447260    -0.37131549
C       -4.68416486    -0.57123335     0.16356737
H       -6.17668824    -0.53972815    -1.34811065
H       -6.70706369    -1.22659353     0.21631830
H       -4.63364663    -0.66536387     1.27255433
C       -3.53110990     0.22961298    -0.26798256
C       -2.82774351     0.93289963     0.79054783
H       -3.08073409     0.16739341    -1.26392470
H       -3.35416541     0.85745189     1.85835926
C       -1.60270191     1.67727001     0.65456387
H       -1.25306508     2.30847999     1.37609705
N       -0.93061243     1.57040271    -0.48842781
H       -0.31421537     2.41550545    -0.54428003
H       -1.24794073     1.00788512    -1.31574412
