6

C       -0.03758830    -0.01319259     0.02152057
N       -0.04979193    -0.01133448     1.30058140
H        0.90607926    -0.18007381    -0.47636324
H        0.83830529    -0.05858984     1.81799337
H       -0.89447360    -0.35200523     1.76368877
H       -0.92302408     0.23559137    -0.54306365
