12

C       -0.03955516     0.00069069     0.01136811
N       -0.04485220    -0.05299629     1.33041383
H        0.84642718     0.02983267    -0.69549335
H        0.87172666    -0.08011761     1.83916120
H       -0.93771408    -0.07559227     1.83701343
H       -0.89876763     0.18432917    -0.71199538
C       -0.03976645     0.00038261     0.00961626
N       -0.04495956    -0.05291059     1.33224224
H        0.85320564     0.02946193    -0.69660266
H        0.87465058    -0.07908051     1.83897611
H       -0.93813995    -0.07699949     1.83391377
H       -0.90403449     0.18755023    -0.71213440
