12

C       -0.04921275    -0.03649617    -0.03250529
N       -0.04200864    -0.04882497     1.35293543
H        0.90666786    -0.08518086    -0.66656625
H        0.81626617     0.25018440     1.88564301
H       -0.91204269    -0.29919573     1.85330418
H       -0.85362426     0.57779945    -0.59386162
C       -0.04959563    -0.03710546    -0.03265010
N       -0.04200708    -0.04843081     1.35244986
H        0.90656790    -0.09034309    -0.66508898
H        0.81274262     0.25675032     1.88658684
H       -0.90856378    -0.30734642     1.85410501
H       -0.84893887     0.58632935    -0.58861025
