14

C       -5.74505881    -0.88877927    -0.00582178
C       -4.87252122     0.00946047     0.50323593
H       -5.42241032    -1.23662901    -0.96455227
H       -6.69932455    -1.22078104     0.34562891
H       -4.95159869     0.55206337     1.46952546
C       -3.76050759     0.00182045    -0.52229439
C       -2.66672860     0.83140967    -0.45918217
H       -3.98370452    -0.71271901    -1.24911695
H       -1.83206269     0.31830707    -1.23517981
C       -1.89144073     1.42885660     0.65836416
H       -2.06851890     1.80323771     1.67684894
N       -0.64344463     1.65050311     0.22098033
H        0.27449970     1.98941281     0.61867227
H       -0.70304016     1.73455595    -0.79519073
