6

C        0.06089800    -0.16384465    -0.02358272
N       -0.10428626     0.13346191     1.28604349
H       -0.10658239     0.39807397    -0.93871744
H       -1.27715586     0.77473938     2.50902351
H        0.06408978    -0.81891777     1.98174086
H        0.83047975    -0.92594327    -0.25016757
