    14
  Step:   600            Position(A)                                  Velocity(au)
C        -5.78949776    -0.83746922    -0.09699972    -0.00041771    -0.00010612     0.00012298
C        -4.69388551    -0.33696491    -0.53654899     0.00061164    -0.00010557    -0.00036623
H        -6.62349290    -0.53400675     0.56885775    -0.00169596     0.00060775     0.00090031
H        -6.15243456    -1.73544176    -0.59175385    -0.00074225     0.00057442    -0.00138547
H        -4.07431749    -0.62487025    -1.49001988     0.00063698     0.00093201    -0.00216500
C        -3.86405995     0.34532931     0.51679935    -0.00003586     0.00003001    -0.00023504
C        -2.64386568     0.73975040     0.76603312     0.00037263     0.00012588     0.00069114
H        -4.46251522     0.04675303     1.32033946     0.00277908     0.00164141     0.00185622
H        -2.04042849     1.12029787     1.59764759    -0.00102234    -0.00005486     0.00065646
C        -1.85952975     1.31682129    -0.29616085     0.00001605    -0.00019981     0.00023301
H        -2.02862755     1.75452578    -1.27079807     0.00023294    -0.00059802     0.00044518
N        -0.69051496     1.76576098     0.03209031    -0.00047309     0.00006771    -0.00026503
H        -0.02577375     2.15156768    -0.64919149    -0.00023817    -0.00102373     0.00014896
H        -0.34278646     1.29825938     0.87556788     0.00010868     0.00002603    -0.00208654
