14

C   -6.00632941   -0.68276190   -0.20934992    0.00019058   -0.00003465    0.00014348
C   -4.76947225   -0.72863539    0.19316683   -0.00013732    0.00009859    0.00001590
H   -6.50357417    0.16069189   -0.75126627    0.00050107   -0.00142108   -0.00024949
H   -6.60459284   -1.60762963   -0.11592427   -0.00065450   -0.00000795   -0.00061190
H   -4.37379985   -1.63464314    0.69941362    0.00038939    0.00023264   -0.00094664
C   -3.85844372    0.37511928    0.03740264   -0.00007930    0.00027152   -0.00011706
C   -2.47878539    0.41468139    0.25405038    0.00027014    0.00016019    0.00009557
H   -4.36968045    1.27200285   -0.42565993    0.00046195   -0.00070786   -0.00022222
H   -2.04458856   -0.42438596    0.74956646    0.00011616   -0.00007985   -0.00008571
C   -1.84628094    1.63637701   -0.06872351   -0.00050582   -0.00019765   -0.00000504
H   -2.44231595    2.38119242   -0.53060510    0.00061067   -0.00030065    0.00038581
N   -0.55715903    1.89575219    0.17479748    0.00006421    0.00001945    0.00010704
H   -0.12011166    2.77969131   -0.17031197    0.00000229   -0.00025229   -0.00057994
H    0.14801432    1.27774053    0.66829560    0.00079934   -0.00128426   -0.00076039
