6

C   -0.03937401    0.02285881    0.00276456   -0.00001837    0.00008925    0.00008975
N   -0.05137565   -0.06277214    1.30930744    0.00022504   -0.00002437   -0.00020365
H    0.96764682   -0.04678217   -0.52735960   -0.00075759   -0.00041718    0.00055597
H    0.89860532   -0.04410286    1.84158227   -0.00134737    0.00004463   -0.00002706
H   -0.92032341   -0.03410876    1.89660013   -0.00121807    0.00003833    0.00108624
H   -0.97574879    0.05513274   -0.54632126    0.00041468   -0.00039071    0.00014537
