6

C       -0.03640982    -0.03081089    -0.00838015
N       -0.05258995    -0.08675187     1.32852874
H        0.73484892     0.66195990    -0.48452882
H        0.76601631    -0.36469800     1.92144500
H       -0.63114851     0.65396602     1.80338602
H       -0.91797294    -0.04832519    -0.71009907
