6

C       -0.03502600    -0.02067307    -0.21898093
N       -0.05006003    -0.14463243     1.51833342
H        0.96211326     0.25578291    -0.61744755
H        0.78823432     0.48883341     1.71067714
H       -0.90441137     0.31691203     1.83851501
H       -0.94585984     0.52488774    -0.52959827
