     6
  Step:   300            Position(A)                                  Velocity(au)
C        -0.02193746     0.01163513     0.01122987    -0.00002862    -0.00002679    -0.00001846
N        -0.05922538    -0.05839582     1.30445121     0.00010940    -0.00002603    -0.00000344
H         0.24306938    -0.87314703    -0.56693273    -0.00007554    -0.00000434    -0.00014700
H         0.06108695     0.82065380     1.81244916    -0.00072040     0.00023795    -0.00029387
H        -0.22349498    -0.94202148     1.79978694    -0.00048389     0.00020780     0.00018622
H        -0.20915589     0.99755978    -0.41419085     0.00010059     0.00023963     0.00052248
