6

C   -0.03589276    0.00987361    0.00608878    0.00010019    0.00007722    0.00007600
N   -0.04564667   -0.04667695    1.31279833   -0.00011287    0.00002469   -0.00004912
H    0.90772799    0.00576986   -0.55862587   -0.00019982   -0.00034715    0.00015467
H    0.88894858   -0.15210636    1.88008122    0.00049633   -0.00041139    0.00058843
H   -0.94434040   -0.10118491    1.76352273    0.00117059   -0.00009691   -0.00031458
H   -1.00325141    0.10872801   -0.50859892   -0.00109248   -0.00040773   -0.00065156
