6

C       -0.13203491     0.13462788     0.08641920
N       -0.00596883    -0.14043235     1.28323340
H        0.20521738     1.12802944    -0.20638093
H       -0.58054597    -1.09095442     1.51683724
H        0.91026259     0.31088549     1.47677782
H       -0.09191833    -0.67040002    -0.75657880
