6

C       -0.04359585     0.00487352    -0.02130235
N       -0.03523846    -0.05540993     1.33714820
H        0.94862535     0.06717756    -0.54771508
H        0.80353282    -0.11641252     1.85629766
H       -0.95676815    -0.01709766     1.90600886
H       -0.99915398     0.10846762    -0.65019350
