6

C       -0.03331145    -0.03581571    -0.00720461
N       -0.04676045    -0.05875261     1.34140143
H        0.84442822     0.41076500    -0.63557082
H        0.85683387    -0.21953063     1.82745208
H       -0.91730121     0.20717479     1.83925852
H       -0.95016423     0.17504638    -0.69384592
