6

C       -0.03082243     0.01415990     0.01590137
N       -0.04863797    -0.05187000     1.29913007
H        0.30296917     0.93847507    -0.45267601
H       -0.04662959    -0.97099252     1.74893666
H       -0.07548984     0.79566502     1.86779532
H       -0.35062885    -0.88085738    -0.51464982
