6

C       -0.04975815    -0.04783671     0.01614613
N       -0.03844076    -0.07565416     1.30632495
H        0.82697353    -0.03096031    -0.68454553
H        0.68992582     0.47148070     1.82324958
H       -0.90650783    -0.27265888     1.86644572
H       -0.69622542     0.78372911    -0.45865914
