     6
  Step:   300            Position(A)                                  Velocity(au)
C        -0.02827457     0.01856660     0.01702595    -0.00001549     0.00006762    -0.00004111
N        -0.05307059    -0.06198793     1.29751585    -0.00000430    -0.00011027     0.00003501
H         0.92553911    -0.06894569    -0.50438293    -0.00010625    -0.00020328     0.00004638
H         0.80594603     0.00585157     1.84559980    -0.00004987     0.00058314    -0.00001468
H        -0.91047107    -0.12300221     1.85125119     0.00016572     0.00035314     0.00032858
H        -0.95952722     0.15647203    -0.53406546     0.00023481    -0.00000649    -0.00035689
