    14
  Step:   600            Position(A)                                  Velocity(au)
C        -5.57788182    -0.33024333     0.72291972    -0.00045624    -0.00073511    -0.00043669
C        -4.51313598    -0.36821889    -0.09571122    -0.00074329     0.00102739     0.00029754
H        -6.32713111     0.41620252     0.57034132    -0.00157472    -0.00002850     0.00296422
H        -5.86940249    -1.05795358     1.47399533    -0.00098413    -0.00166725    -0.00229730
H        -3.77014401    -1.12893834     0.04466358     0.00272402     0.00208541    -0.00000844
C        -3.94773455     0.91911148    -0.77081141     0.00006487    -0.00042134    -0.00042671
C        -2.61173424     0.88592880    -0.88429239    -0.00040432    -0.00034354     0.00004705
H        -4.53874568     1.51964395    -1.44153281    -0.00003927    -0.00012190     0.00230559
H        -2.01201304     1.50382558    -1.47794509     0.00044812    -0.00083051    -0.00144123
C        -1.99917424     0.69750617     0.46227310     0.00026660     0.00030980     0.00047058
H        -2.36059853    -0.06936094     1.10170380     0.00227971     0.00115803    -0.00065549
N        -0.85708919     1.20516874     0.69327826     0.00078272     0.00004738    -0.00002591
H        -0.34987399     1.07348075     1.61991183     0.00020523     0.00028675     0.00179489
H        -0.60423813     2.13938125     0.22801449     0.00122592     0.00039956    -0.00172749
