12

C       -0.05166742     0.09797674    -0.02343400
N       -0.03955564    -0.05994404     1.34568852
H        0.90339767    -0.07536368    -0.63195612
H        0.77242532    -0.54246069     1.81532644
H       -0.90397272     0.18269057     1.87447167
H       -0.81943499    -0.56913585    -0.58672039
C       -0.05225744     0.09842353    -0.02380691
N       -0.03967449    -0.06048301     1.34534678
H        0.90475960    -0.07027401    -0.62867855
H        0.77005153    -0.54709431     1.81616676
H       -0.89882212     0.19083844     1.87574917
H       -0.81489142    -0.57557403    -0.58292321
