     6
  Step:   300            Position(A)                                  Velocity(au)
C        -0.04520433     0.02265498     0.01544597     0.00004094     0.00007554    -0.00000939
N        -0.03468916    -0.06736486     1.29892314    -0.00001445    -0.00011996     0.00001253
H         0.88084461     0.09808502    -0.54760709    -0.00037473    -0.00035867    -0.00051831
H         0.80852532    -0.15824495     1.87027214    -0.00010752     0.00077285     0.00033853
H        -0.88780399     0.07011173     1.84435272     0.00002432     0.00024496     0.00008429
H        -0.99378735    -0.01356735    -0.50934169     0.00017085     0.00010778     0.00003329
