     6
  Step:   120            Position(A)                                  Velocity(au)
C        -0.03696383    -0.01901760    -0.20818667     0.00002543    -0.00012133     0.00010361
N        -0.05118575    -0.14344463     1.50317209    -0.00006513     0.00000469    -0.00010870
H         0.84367073     0.56708438    -0.52871985    -0.00045590     0.00156853     0.00085894
H         0.86115406     0.18452331     1.94212758     0.00013889    -0.00071698    -0.00004033
H        -0.77744464     0.55210911     1.74584643     0.00109909     0.00104513    -0.00061812
H        -0.98855921     0.24650032    -0.67505361    -0.00018010    -0.00051600     0.00007536
