12

C       -0.04905291    -0.04944611    -0.00546278
N       -0.03544583    -0.07347150     1.33361983
H        0.87388976     0.11279925    -0.68307551
H        0.76750542     0.35035878     1.82630470
H       -0.95339137    -0.14943995     1.83535329
H       -0.82385583     0.62667752    -0.55388987
C       -0.04981659    -0.05006011    -0.00735485
N       -0.03508242    -0.07266731     1.33481816
H        0.87748858     0.10759032    -0.68128488
H        0.76621951     0.35378214     1.82793839
H       -0.95324646    -0.15919973     1.83487582
H       -0.82226358     0.63436403    -0.55094306
