6

C       -0.04981659    -0.05006011    -0.00735485
N       -0.03508242    -0.07266731     1.33481816
H        0.87748858     0.10759032    -0.68128488
H        0.76621951     0.35378214     1.82793839
H       -0.95324646    -0.15919973     1.83487582
H       -0.82226358     0.63436403    -0.55094306
