     6
  Step:   120            Position(A)                                  Velocity(au)
C        -0.01162870     0.09372515    -0.02004515     0.00010408     0.00002235     0.00003738
N        -0.03972420    -0.09438516     1.33865605     0.00002107     0.00000393    -0.00014169
H         0.65021152    -0.65200844    -0.59335957    -0.00112268    -0.00120410     0.00062668
H         0.71541655     0.35720522     1.88773456    -0.00094861     0.00116117     0.00047156
H        -0.91787270    -0.36816695     1.86078048     0.00060199    -0.00122647    -0.00005435
H        -0.97011083     0.18796897    -0.62668154    -0.00006368     0.00094847     0.00047958
