     6
  Step:   300            Position(A)                                  Velocity(au)
C        -0.03852248     0.01345202     0.01155212     0.00002185    -0.00001215    -0.00001699
N        -0.04304218    -0.05511968     1.30220735    -0.00003481     0.00000152     0.00002072
H         0.00526734     0.99269836    -0.46184002     0.00040840    -0.00017572    -0.00015414
H        -0.21850198    -0.92185343     1.81610301     0.00066753     0.00002653     0.00026770
H         0.14477430     0.76290644     1.88978733    -0.00036758    -0.00000057     0.00014075
H        -0.08731205    -0.89784227    -0.58558876    -0.00048508     0.00027344    -0.00033979
