12

C       -0.03466732     0.05923338    -0.13373291
N       -0.03009018     0.00435388     1.44878076
H        0.89764040     0.08245978    -0.72683224
H        0.53729593    -0.86172292     1.67651578
H       -0.95924755    -0.06782317     1.93613668
H       -0.85737661    -0.58903820    -0.53297393
C       -0.03497823     0.05899255    -0.13103788
N       -0.02957486     0.00436346     1.44643954
H        0.89726730     0.09046690    -0.72588770
H        0.52873414    -0.86686963     1.67119698
H       -0.95932804    -0.06061676     1.93688553
H       -0.85181745    -0.59636847    -0.52892816
