     6
  Step:   300            Position(A)                                  Velocity(au)
C        -0.03861747     0.00502063     0.01735705     0.00001857    -0.00001996     0.00016753
N        -0.04583706    -0.04790754     1.29833852    -0.00003720     0.00001061    -0.00011986
H         0.09374603     0.95761474    -0.48834826     0.00102454    -0.00029588    -0.00020423
H        -0.14616483    -0.91235084     1.84063503     0.00133930    -0.00010595     0.00005555
H         0.11296714     0.76965752     1.89059706    -0.00101261     0.00009226     0.00004124
H        -0.17635157    -0.87879448    -0.59983002    -0.00105556     0.00039998    -0.00022322
