14

C   -6.02456393   -0.62789348   -0.10972351    0.00012969    0.00007107    0.00029268
C   -4.70503146   -0.79577514    0.11337677    0.00000063   -0.00001172   -0.00012590
H   -6.39897843    0.43639507   -0.14761265   -0.00034286   -0.00026473   -0.00073498
H   -6.76133107   -1.40799532   -0.09456875    0.00060192    0.00012474   -0.00061038
H   -4.19361809   -1.71669371    0.32900803    0.00010141   -0.00089353    0.00029290
C   -3.84230991    0.34571076    0.03757911    0.00022111   -0.00002807   -0.00002298
C   -2.46397633    0.40926928    0.12210940   -0.00001629    0.00019210   -0.00022849
H   -4.33538780    1.30618726   -0.12381420   -0.00112568    0.00000580    0.00029095
H   -1.95893378   -0.49638085    0.34672641   -0.00202106    0.00064532    0.00039999
C   -1.87922462    1.66210151   -0.12418735    0.00000265   -0.00019239    0.00004530
H   -2.42347966    2.48686304   -0.63311256    0.00202230    0.00051111    0.00091195
N   -0.60503720    1.89424225    0.29256764   -0.00018492    0.00000310   -0.00008944
H   -0.04014542    2.66374092    0.04135540   -0.00000817   -0.00004117   -0.00035897
H   -0.06019666    1.20814283    0.76360232   -0.00068336   -0.00049979    0.00152075
