14

C   -6.07382553   -0.79750159   -0.05707461   -0.00017061    0.00022912    0.00006443
C   -4.66457550   -0.70228867    0.11489279    0.00000162    0.00001682   -0.00016605
H   -6.66677692    0.09260731   -0.35439537    0.00051158   -0.00102879   -0.00028399
H   -6.57677142   -1.76992321   -0.02030126    0.00111725   -0.00030927   -0.00020210
H   -4.11900459   -1.57713986    0.41044911   -0.00071810    0.00015974   -0.00019867
C   -3.89840321    0.48799143   -0.09420415    0.00006641   -0.00000789    0.00017844
C   -2.52436750    0.46296145    0.15614159   -0.00005165    0.00002223   -0.00005817
H   -4.37406031    1.40858741   -0.33559965   -0.00012619   -0.00021646    0.00014706
H   -1.98971499   -0.41930317    0.41498246    0.00169176   -0.00084035    0.00052490
C   -1.81030149    1.70080787   -0.00344130    0.00000145   -0.00019214    0.00003566
H   -2.29776913    2.56423751   -0.44556435    0.00076451   -0.00131937   -0.00031773
N   -0.56553932    1.78679230    0.21909027   -0.00016331    0.00018769    0.00004576
H   -0.06017526    2.71810218    0.20682632   -0.00005195   -0.00041888   -0.00036635
H    0.03499711    1.06687331    0.70681407    0.00090117    0.00055321   -0.00058628
