12

C       -0.03335613    -0.03181763    -0.03414210
N       -0.04138707    -0.11342312     1.35091613
H        0.84428364    -0.05796866    -0.72666410
H        0.58318314     0.65149630     1.72020850
H       -0.93343741    -0.11239617     1.90996358
H       -0.73435863     0.80439174    -0.37743561
C       -0.03398425    -0.03168370    -0.03113918
N       -0.04097453    -0.11283884     1.34818921
H        0.84261203    -0.06680957    -0.72497602
H        0.57900011     0.65646310     1.72142562
H       -0.93150767    -0.12232404     1.90760517
H       -0.72868186     0.80847839    -0.37587113
