6

C       -0.03398425    -0.03168370    -0.03113918
N       -0.04097453    -0.11283884     1.34818921
H        0.84261203    -0.06680957    -0.72497602
H        0.57900011     0.65646310     1.72142562
H       -0.93150767    -0.12232404     1.90760517
H       -0.72868186     0.80847839    -0.37587113
