     6
  Step:   120            Position(A)                                  Velocity(au)
C        -0.03755859    -0.02821870    -0.00811315     0.00011305    -0.00001086     0.00038913
N        -0.05536424    -0.09700834     1.32980473    -0.00008808     0.00012601    -0.00037388
H         0.71232437     0.71696713    -0.44567849    -0.00112509     0.00099172     0.00048425
H         0.78221545    -0.31218527     1.91127793    -0.00042158    -0.00180012    -0.00036012
H        -0.58158999     0.73069535     1.74436797     0.00112107     0.00074120     0.00005775
H        -0.90899897    -0.12091861    -0.70069815     0.00030252    -0.00155455     0.00037679
