6

C       -0.04109413     0.04818447    -0.04298645
N       -0.04627526    -0.05623569     1.35851471
H        0.83395969     0.32672378    -0.69302964
H        0.68186864    -0.60631502     1.87090068
H       -0.79577469     0.38087323     1.96466887
H       -0.80025284    -0.56376932    -0.61665798
