6

C       -0.03559921     0.03287320     0.01947179
N       -0.05101704    -0.08415984     1.29836975
H        0.92049438     0.18176327    -0.46120837
H        0.83358205    -0.21924718     1.80048503
H       -0.87712430     0.23004925     1.81392994
H       -0.95674071    -0.08454658    -0.53577576
