     6
  Step:   300            Position(A)                                  Velocity(au)
C        -0.01904091     0.01835100     0.02813128     0.00003876    -0.00004704    -0.00013882
N        -0.03638359    -0.05763701     1.28857447    -0.00006438    -0.00006055     0.00016183
H         0.03454082     0.95603602    -0.52094968    -0.00108064     0.00016945     0.00018804
H        -0.46018747    -0.86278678     1.75689191    -0.00082167     0.00069918     0.00010207
H        -0.05298825     0.73727423     1.93896756     0.00128437     0.00031478    -0.00012595
H        -0.00181328    -0.91804489    -0.52458998     0.00105077     0.00021855    -0.00075887
