14

C       -5.91203150    -1.05448003    -0.12294378
C       -4.91742803    -0.36843267     0.38589860
H       -6.50120619    -0.61097655    -0.92999348
H       -6.09669480    -1.99397285     0.38320529
H       -4.42829847    -1.07956500     1.08358611
C       -3.93659393     0.57529750    -0.18419670
C       -2.54216279     0.41949809    -0.21687059
H       -4.11169840     1.75273493     0.03079265
H       -2.18642882    -0.58849450    -0.16231701
C       -1.81272154     1.62528609     0.04692790
H       -2.25031240     2.62526064     0.19996319
N       -0.47547067     1.77260609     0.34157064
H       -0.05776036     2.71789138     0.13458332
H        0.11239790     0.91964204     0.61400705
