12

C       -0.03101149    -0.00908997    -0.02379719
N       -0.03032461    -0.02255352     1.34915142
H        0.79871426     0.50978571    -0.60766024
H        0.62945382    -0.69101427     1.81298536
H       -0.91588103     0.21220888     1.88365885
H       -0.93427984    -0.27902830    -0.66165264
C       -0.03062934    -0.00909718    -0.02423029
N       -0.03015316    -0.02295620     1.34873682
H        0.79359704     0.51820506    -0.60331575
H        0.62191611    -0.69525268     1.81416536
H       -0.91164328     0.22112432     1.88626793
H       -0.93279899    -0.28644287    -0.65886394
