12

C       -0.04226713     0.01087391     0.01910644
N       -0.05556502    -0.01679290     1.31841471
H        0.78407787    -0.44247625    -0.62988466
H        0.81078218     0.16300940     1.88973920
H       -0.71278218    -0.69893872     1.76783999
H       -0.81920938     0.41240522    -0.68446888
C       -0.04188443     0.01102926     0.01816437
N       -0.05594786    -0.01737003     1.31883704
H        0.78184851    -0.45099769    -0.62836513
H        0.80861077     0.17366359     1.88868916
H       -0.70879125    -0.70413789     1.76919084
H       -0.81803963     0.42164049    -0.68093244
