6

C        0.16541123     0.20818764     0.02312365
N       -0.19538319    -0.34800247     1.33987442
H       -1.21675663     0.59793248     0.38984680
H        0.03047432     0.43655772     2.27042198
H        0.66093808     1.38430669    -0.01727046
H        0.05635783    -0.73310299    -0.64611328
