6

C       -0.02520247     0.01354273     0.01288932
N       -0.05007467    -0.05626447     1.30004495
H        0.93879457     0.16389761    -0.49274376
H        0.81369784    -0.17943356     1.83693406
H       -0.95392005    -0.00907900     1.79154837
H       -1.01534197    -0.02468456    -0.46319329
