6

C       -0.06095784    -0.06262811    -0.03459966
N       -0.03580308    -0.05667260     1.34585218
H        0.90527258     0.06807268    -0.62231214
H        0.79311490     0.31951615     1.87648390
H       -0.92610553    -0.24998003     1.85895461
H       -0.76130997     0.72643769    -0.51125078
