6

C       -0.03886812    -0.02929687    -0.00998528
N       -0.05229959    -0.10393337     1.32957176
H        0.70957251     0.74115665    -0.41922077
H        0.80103622    -0.25615196     1.92748721
H       -0.62204979     0.68377369     1.73917478
H       -0.91156444    -0.04515100    -0.71260578
