6

C       -0.04740515    -0.00710254    -0.02469655
N       -0.03076191    -0.07536009     1.34673536
H        0.83663358    -0.29658595    -0.66952626
H        0.70898757     0.44854656     1.86139358
H       -0.93587729    -0.31197628     1.85220612
H       -0.83034903     0.62212250    -0.57247244
