     6
  Step:   120            Position(A)                                  Velocity(au)
C        -0.02096616    -0.09210508    -0.03415616     0.00010865    -0.00000879    -0.00008040
N        -0.03796395    -0.02208088     1.34222357     0.00001535     0.00009334    -0.00003274
H         0.71315902     0.67583892    -0.47664498    -0.00079973     0.00056987     0.00070562
H         0.74980017    -0.46114767     1.85484076    -0.00092722    -0.00133750     0.00025598
H        -0.93095626     0.22857015     1.85215375     0.00062501     0.00055224     0.00006008
H        -0.96755154     0.29136421    -0.58331422    -0.00040605    -0.00097700     0.00039137
