14

C       -5.85567311    -0.79619926    -0.28411340
C       -4.54073125    -0.58712787    -0.36820343
H       -6.51870969    -0.74721360     0.50425244
H       -6.23778827    -1.11058806    -1.28467566
H       -4.07409713    -0.92151428    -1.32788465
C       -3.91129959     0.32595381     0.57947872
C       -2.76230916     1.06635932     0.78528502
H       -4.36795206     0.27172827     1.53533607
H       -2.56508457     1.70634228     1.65320330
C       -1.84833859     1.11357996    -0.22549146
H       -1.79970963     0.42511676    -1.00009995
N       -0.62838567     1.83349781    -0.07852761
H        0.32723251     1.59018059    -0.51311607
H       -0.57306600     2.57150537     0.73497523
