     6
  Step:   300            Position(A)                                  Velocity(au)
C        -0.03846647     0.00783217     0.01253734    -0.00001508    -0.00003807    -0.00003030
N        -0.04443389    -0.04508633     1.30118093    -0.00000846     0.00008220     0.00003450
H         0.91545518     0.08223067    -0.50842650    -0.00008348    -0.00015836    -0.00011209
H         0.82103061    -0.19303189     1.82249152    -0.00001817    -0.00016382     0.00005251
H        -0.89247728     0.01302202     1.87848474     0.00015804    -0.00061405     0.00036614
H        -0.98111622    -0.03880552    -0.53155257     0.00024087     0.00024763    -0.00042482
