     6
  Step:   120            Position(A)                                  Velocity(au)
C        -0.04153611    -0.02985064    -0.12607812    -0.00009421    -0.00017582     0.00014847
N        -0.04630630    -0.13010973     1.42468298     0.00008363    -0.00005754    -0.00020165
H         0.92964605     0.37079006    -0.49618961    -0.00024806     0.00116284     0.00124753
H         0.83108498     0.28893434     1.81691317    -0.00008286     0.00015826    -0.00023031
H        -0.88610291     0.38235051     1.75875910    -0.00029151     0.00119421    -0.00054238
H        -0.94912052     0.45192007    -0.48299730     0.00058299     0.00037931     0.00055824
