12

C       -0.04128179    -0.02033960    -0.03693240
N       -0.03540229    -0.10558940     1.35286833
H        0.83210562    -0.17354704    -0.71875624
H        0.56544544     0.65886670     1.77706909
H       -0.90597353    -0.23135332     1.91509200
H       -0.72063101     0.78593572    -0.44120959
C       -0.04170057    -0.02023367    -0.03376161
N       -0.03490565    -0.10518346     1.35005013
H        0.82891307    -0.18198206    -0.71629279
H        0.55914416     0.66437095     1.77510249
H       -0.90462250    -0.24028577     1.91332513
H       -0.71439958     0.79089558    -0.43856013
