6

C   -0.04085660    0.01249666    0.02309426    0.00006330   -0.00013217    0.00032013
N   -0.04175321   -0.06329773    1.28520924   -0.00005968    0.00006698   -0.00030177
H    0.94218853    0.03724353   -0.49756699   -0.00040504    0.00025113   -0.00014896
H    0.77717042   -0.07802422    1.82658189    0.00052716    0.00005701    0.00075291
H   -0.91800314    0.00162827    1.93477914    0.00021641   -0.00029168   -0.00031259
H   -0.94722655    0.10007152   -0.50666453   -0.00026352    0.00062767    0.00008740
