6

C       -0.05671625     0.08229226    -0.00186077
N       -0.03431532    -0.04983166     1.33039899
H        0.88318258     0.06806166    -0.65732250
H        0.71604582    -0.62567056     1.79444411
H       -0.88943800     0.23407226     1.86580416
H       -0.77003121    -0.63437065    -0.57640438
