6

C       -0.04013951     0.05335304    -0.11536329
N       -0.04013771    -0.00574840     1.41752837
H        0.95837586    -0.21419712    -0.50257106
H        0.82402608    -0.47452455     1.82589488
H       -0.93461599    -0.35207260     1.79724852
H       -1.02463119    -0.18486415    -0.55231928
