6

C       -0.03467735    -0.01581116    -0.14520084
N       -0.03944779    -0.13439006     1.44959609
H        0.91146726    -0.02574965    -0.73697281
H        0.61081205     0.65251771     1.73241391
H       -0.94501384     0.04572109     1.93239641
H       -0.82880702     0.71367577    -0.44968873
