6

C       -0.03147178     0.03249174    -0.01264794
N       -0.03829302    -0.07250074     1.33593537
H        0.69529435    -0.54865463    -0.66395766
H        0.67396094     0.45997556     1.89473145
H       -0.83344401    -0.46291613     1.89563853
H       -0.84158951     0.50213876    -0.64827833
