6

C       -0.00361235     0.01247421     0.01948886
N       -0.08889437    -0.05125037     1.30135855
H        0.33871814     0.92873363    -0.45518491
H        0.06208792    -0.97545837     1.71640291
H       -0.01932730     0.80294592     1.86540908
H       -0.31606366    -0.86244497    -0.55094993
