12

C       -0.03009384     0.04963171    -0.22374924
N       -0.03780106     0.00362378     1.52227379
H        0.93301814    -0.14080599    -0.72052735
H        0.71747281    -0.66548219     1.87280349
H       -0.95553890    -0.24503185     1.88974419
H       -1.02396644    -0.26023670    -0.63779925
C       -0.03010205     0.05102766    -0.22363403
N       -0.03800130     0.00425897     1.52221617
H        0.93382274    -0.14460174    -0.72094953
H        0.71534432    -0.67559014     1.86931928
H       -0.95352194    -0.24476499     1.88909165
H       -1.02177896    -0.27206092    -0.63381240
