6

C       -0.03010205     0.05102766    -0.22363403
N       -0.03800130     0.00425897     1.52221617
H        0.93382274    -0.14460174    -0.72094953
H        0.71534432    -0.67559014     1.86931928
H       -0.95352194    -0.24476499     1.88909165
H       -1.02177896    -0.27206092    -0.63381240
