6

C       -0.01162870     0.09372515    -0.02004515
N       -0.03972420    -0.09438516     1.33865605
H        0.65021152    -0.65200844    -0.59335957
H        0.71541655     0.35720522     1.88773456
H       -0.91787270    -0.36816695     1.86078048
H       -0.97011083     0.18796897    -0.62668154
