12

C       -0.03460257     0.08084583    -0.20878086
N       -0.03918995     0.00736196     1.51952758
H        0.90953242    -0.19866396    -0.69622302
H        0.71880833    -0.66986659     1.71571050
H       -0.94436217    -0.41155961     1.84330023
H       -0.93999472    -0.45534970    -0.59879081
C       -0.03471621     0.08127813    -0.20857644
N       -0.03918827     0.00763538     1.51947433
H        0.91021297    -0.19676109    -0.69548664
H        0.71678638    -0.67692697     1.71032221
H       -0.94469130    -0.40800067     1.84132937
H       -0.93699333    -0.46270198    -0.59386400
