12

C       -0.03253700    -0.09336484    -0.02947235
N       -0.03897132    -0.00311067     1.34923718
H        0.81221306     0.53519404    -0.56787652
H        0.81920479    -0.35917020     1.83370909
H       -0.97279097    -0.02341252     1.85248816
H       -0.94228721     0.33337738    -0.62455472
C       -0.03221799    -0.09437733    -0.03042285
N       -0.03920291    -0.00237120     1.34936798
H        0.80863112     0.54036930    -0.56327095
H        0.81906232    -0.36466611     1.83603874
H       -0.96948346    -0.02180810     1.85158511
H       -0.94245332     0.33388259    -0.62107823
