14

C   -6.03925650   -0.69946445   -0.08977192    0.00018916   -0.00035534   -0.00002772
C   -4.65720547   -0.82613162    0.09807778   -0.00014136    0.00010138    0.00005740
H   -6.37679463    0.35321960   -0.30265217    0.00051770    0.00040781    0.00068572
H   -6.84074891   -1.48885509    0.13941197    0.00063104    0.00025594    0.00024373
H   -4.20067674   -1.70859218    0.57238359   -0.00010670   -0.00069476   -0.00013588
C   -3.90976417    0.36619285   -0.07865217   -0.00032023    0.00032998   -0.00021166
C   -2.56604179    0.49621903    0.13616245    0.00021365   -0.00001254    0.00012316
H   -4.32629165    1.30024627   -0.43925598    0.00076490   -0.00041479    0.00025415
H   -1.93680051   -0.25536984    0.59510481   -0.00027251    0.00040819   -0.00002498
C   -1.79831586    1.75665331    0.00946356   -0.00010692    0.00017575   -0.00004939
H   -2.44830858    2.65772913   -0.25564585    0.00034452    0.00132134   -0.00033930
N   -0.55568054    1.80619633    0.25175101    0.00010546   -0.00025751    0.00008262
H   -0.06301284    2.72773265    0.07585213   -0.00037302   -0.00066195   -0.00038389
H   -0.00424192    0.92539208    0.23311797   -0.00099697    0.00010598   -0.00015815
