     6
  Step:   600            Position(A)                                  Velocity(au)
C        -0.22554406    -0.01954868    -0.11255739    -0.00054415     0.00009415     0.00081698
N         0.06932869     0.00112560     1.45183279     0.00003244    -0.00037057    -0.00037427
H         0.34762443    -0.60163387    -0.81392999     0.00260631     0.00014992     0.00326364
H         0.33231889     1.00814037     1.46688294     0.00232740    -0.00181645    -0.00290364
H         1.02574711    -0.58118230     2.12690978    -0.00006147     0.00386280    -0.00079121
H        -1.19474468    -0.27752042    -0.72162123     0.00116105     0.00183148    -0.00410291
