12

C       -0.01783218     0.10307279    -0.02553805
N       -0.04813784    -0.05990774     1.34613701
H        0.71412587    -0.62379570    -0.56565766
H        0.84560625     0.05043213     1.88892474
H       -0.90902853    -0.42485483     1.79982364
H       -0.98223844    -0.06728808    -0.63315395
C       -0.01730070     0.10356300    -0.02606116
N       -0.04824677    -0.06069141     1.34591112
H        0.70955410    -0.62924111    -0.56130865
H        0.84292174     0.05918079     1.89117591
H       -0.90541729    -0.42772538     1.79996803
H       -0.98341289    -0.06267210    -0.63052598
