     6
  Step:   300            Position(A)                                  Velocity(au)
C        -0.04100230    -0.01140078     0.02225402     0.00009246     0.00004599    -0.00001730
N        -0.04787105    -0.01062483     1.30094990    -0.00002574    -0.00014908    -0.00002048
H         0.90483595    -0.16784697    -0.47523981    -0.00029104    -0.00071577    -0.00022021
H         0.83892188    -0.10473948     1.81473994     0.00013356     0.00156223     0.00008134
H        -0.88565161    -0.35687718     1.76796016    -0.00041507     0.00012649    -0.00037198
H        -0.91723110     0.24317941    -0.55904124    -0.00017159     0.00055061     0.00100160
