6

C   -0.03502227    0.00161767    0.00065133   -0.00002671   -0.00014828    0.00002014
N   -0.04633961   -0.04264609    1.31563152   -0.00026459    0.00016666   -0.00012495
H    0.93243254   -0.01489910   -0.52267475    0.00005803    0.00029028    0.00027886
H    0.84372247   -0.18301600    1.76651017    0.00184327   -0.00064780    0.00076339
H   -0.96247551   -0.05199309    1.86786022    0.00135301   -0.00077454   -0.00002823
H   -0.96533823    0.15347880   -0.50989451    0.00074093    0.00058299    0.00048246
