14

C       -5.32977246    -0.99418047     0.63440106
C       -5.19005424     0.05776248    -0.15803651
H       -4.60513276    -1.82038819     0.44816555
H       -6.04874962    -1.13930658     1.44241502
H       -5.50003699     1.14010167    -0.05072179
C       -3.85883049     0.17934076    -0.86298328
C       -2.73009231     0.88463430    -0.55604302
H       -3.92168654    -0.38795008    -1.81727554
H       -2.08984760     1.31915969    -1.32985145
C       -1.93897865     1.40339963     0.52399903
H       -2.24564776     1.62013268     1.67604724
N       -0.61089732     1.49844716     0.58247502
H       -0.24283613     1.78526368     1.47739451
H        0.14462936     1.05857264     0.06239536
