14

C       -6.00042644    -0.81002289    -0.04332678
C       -4.71844453    -0.50636127     0.49241711
H       -6.28875635    -0.60882760    -1.10373945
H       -6.81756568    -1.09918114     0.62527766
H       -4.60719712    -0.78834440     1.60789072
C       -3.91417962     0.19834260    -0.45631166
C       -2.48924655     0.58778758    -0.32680616
H       -4.33937197     0.46451517    -1.50383313
H       -1.86564732     0.02476860    -1.04146427
C       -1.84664094     1.66313113     0.45072594
H       -2.49119129     2.23248727     1.23135854
N       -0.54735927     1.79572992     0.26038830
H       -0.02334689     2.64815952     0.57521693
H        0.10115820     1.31483243    -0.38599697
