     6
  Step:   120            Position(A)                                  Velocity(au)
C        -0.04071634     0.06810576    -0.18337777    -0.00002539    -0.00005383     0.00018078
N        -0.04078134     0.01336782     1.49883901    -0.00001666    -0.00001569    -0.00017248
H         0.83082898    -0.53327677    -0.50995909    -0.00062637    -0.00128607     0.00107791
H         0.82962627    -0.39223160     1.84286038     0.00056345     0.00166616     0.00038874
H        -0.80908588    -0.71383709     1.63191661     0.00066850    -0.00122642    -0.00127253
H        -1.01240798    -0.02775662    -0.71602086    -0.00007154     0.00170580     0.00004865
