     6
  Step:   300            Position(A)                                  Velocity(au)
C        -0.04137726     0.00978045     0.01718676     0.00002419    -0.00000571    -0.00013662
N        -0.03925149    -0.05122319     1.29753260    -0.00003978    -0.00000406     0.00011121
H         0.01703065     0.98785335    -0.46024673    -0.00020227     0.00011676    -0.00000416
H        -0.26201084    -0.91528224     1.79945873    -0.00000074     0.00005582     0.00030821
H         0.16714944     0.76894037     1.87069440     0.00034740    -0.00003284     0.00005817
H        -0.09658490    -0.91600192    -0.55362327     0.00012025    -0.00001538    -0.00027964
