     6
  Step:   120            Position(A)                                  Velocity(au)
C        -0.03683972     0.05130738    -0.03556748    -0.00008494    -0.00005586     0.00057320
N        -0.03019380    -0.00885044     1.36087856     0.00008863    -0.00003773    -0.00052485
H         0.84366116     0.21327093    -0.70320223    -0.00035436     0.00146389     0.00053165
H         0.49883506    -0.86471300     1.69606634    -0.00134703    -0.00073270    -0.00046999
H        -0.89866039     0.12711325     1.93914867     0.00039559     0.00154807    -0.00008667
H        -0.79819766    -0.63385571    -0.52739017     0.00108630    -0.00108921     0.00048818
