6

C   -0.04054305    0.01950215    0.01096751   -0.00005285   -0.00002223    0.00001619
N   -0.04525475   -0.04868449    1.31046131    0.00010356   -0.00003688   -0.00003730
H    0.93643623   -0.02030900   -0.51333573    0.00023056    0.00023059   -0.00029882
H    0.87153620   -0.17055734    1.83367516   -0.00076667    0.00019578   -0.00001460
H   -0.90480352   -0.06979566    1.80612068   -0.00058592    0.00027665    0.00035102
H   -1.00411720    0.03503159   -0.57574017    0.00031268    0.00007432    0.00028781
