6

C       -0.03664059    -0.01664078    -0.20293248
N       -0.05011849    -0.14270080     1.49672886
H        0.83094680     0.61333323    -0.52921965
H        0.85201909     0.11070749     1.95083377
H       -0.75391518     0.59775280     1.77059507
H       -1.00891618     0.18972420    -0.68107719
