12

C       -0.03733758    -0.01166645    -0.03709490
N       -0.05432816    -0.09950724     1.35475175
H        0.73990134     0.67589829    -0.50166884
H        0.78850798    -0.33192389     1.93041711
H       -0.62890397     0.66427622     1.80569789
H       -0.91255761    -0.15621048    -0.72649903
C       -0.03695741    -0.01180386    -0.03387763
N       -0.05461297    -0.09914112     1.35187658
H        0.73380577     0.68190492    -0.49800500
H        0.78512061    -0.33991966     1.92768651
H       -0.62272168     0.67050964     1.80392610
H       -0.90982928    -0.16390511    -0.72404327
