6

C       -0.02336696     0.01537963     0.02808964
N       -0.06397667    -0.05378619     1.29232712
H        0.17578299    -0.88666834    -0.56096124
H        0.06935215     0.77654599     1.87040653
H       -0.06986100    -0.94497701     1.79715003
H       -0.22071325     0.94946924    -0.50789153
