6

C       -0.05872770    -0.01953187    -0.22419574
N       -0.04646772     0.00750299     1.52779818
H        0.58620258     0.72918015    -0.59887938
H        0.87268925    -0.45907329     1.93107153
H       -0.84498391    -0.18209913     2.17342230
H       -0.48117803    -0.62974457    -1.17279543
