     6
  Step:   600            Position(A)                                  Velocity(au)
C         0.01540817    -0.04409748     0.00529418    -0.00011802    -0.00028334     0.00088506
N        -0.07799960    -0.03210058     1.40673820    -0.00054037     0.00007763    -0.00154439
H         0.05684269     0.90944722    -0.74522112     0.00125192     0.00057355     0.00003988
H        -0.96466432    -0.64169324     1.40016956     0.00659873     0.00048857     0.00419760
H         0.72475872     0.70169025     1.50967336     0.00062223    -0.00224642     0.00159290
H        -0.12924211    -0.66806179    -0.88419737     0.00044266     0.00348183     0.00508463
