12

C       -0.03993509     0.01122552    -0.19147786
N       -0.05328987    -0.09539635     1.48551322
H        0.92087063     0.44665271    -0.61573197
H        0.87805113    -0.28748987     1.95928464
H       -0.80657536     0.47220963     1.93556742
H       -0.98888223    -0.10926579    -0.74863716
C       -0.03989345     0.01059483    -0.18981420
N       -0.05385130    -0.09563335     1.48426193
H        0.91690430     0.45920844    -0.61159878
H        0.87711214    -0.29383167     1.95810508
H       -0.79634568     0.48283250     1.93007955
H       -0.98690086    -0.11529379    -0.74853881
