6

C       -0.03989345     0.01059483    -0.18981420
N       -0.05385130    -0.09563335     1.48426193
H        0.91690430     0.45920844    -0.61159878
H        0.87711214    -0.29383167     1.95810508
H       -0.79634568     0.48283250     1.93007955
H       -0.98690086    -0.11529379    -0.74853881
