     6
  Step:     0            Position(A)                                  Velocity(au)
C        -0.04276794     0.00236601     0.00214759     0.00000193     0.00005964     0.00025311
N        -0.03453195    -0.04202462     1.31270555    -0.00010773     0.00005519    -0.00018584
H         0.93163592     0.02609750    -0.52066574    -0.00003457    -0.00052842    -0.00006657
H         0.79074973    -0.13523907     1.82041047     0.00092162    -0.00024033    -0.00019231
H        -0.98512514    -0.10023177     1.83430206     0.00020641    -0.00045779    -0.00005673
H        -0.96070513     0.09539054    -0.50941475     0.00038067    -0.00025109    -0.00011786
     6
  Step:     1            Position(A)                                  Velocity(au)
C        -0.04273070     0.00268582     0.00349250     0.00001186     0.00005738     0.00023775
N        -0.03520245    -0.04171607     1.31174219    -0.00013627     0.00005754    -0.00016504
H         0.93155189     0.02322799    -0.52123592     0.00000287    -0.00052139    -0.00014114
H         0.79648143    -0.13666435     1.81993812     0.00115930    -0.00027938     0.00000976
H        -0.98349807    -0.10274245     1.83382211     0.00038681    -0.00046062    -0.00011753
H        -0.95910573     0.09409733    -0.51053054     0.00020337    -0.00022194    -0.00029062
     6
  Step:     2            Position(A)                                  Velocity(au)
C        -0.04263820     0.00299358     0.00474779     0.00002203     0.00005528     0.00022039
N        -0.03602225    -0.04139538     1.31090058    -0.00016208     0.00005965    -0.00014137
H         0.93166729     0.02039528    -0.52220927     0.00003778    -0.00051528    -0.00021386
H         0.80342847    -0.13829451     1.82051722     0.00136320    -0.00031497     0.00018994
H        -0.98089484    -0.10526939     1.83301672     0.00056213    -0.00046415    -0.00017489
H        -0.95848101     0.09296328    -0.51259311     0.00002677    -0.00019324    -0.00046278
     6
  Step:     3            Position(A)                                  Velocity(au)
C        -0.04248988     0.00329025     0.00590209     0.00003217     0.00005336     0.00020083
N        -0.03697447    -0.04106395     1.31019658    -0.00018450     0.00006148    -0.00011478
H         0.93196492     0.01759434    -0.52357410     0.00006900    -0.00050995    -0.00028419
H         0.81138563    -0.14010802     1.82201477     0.00152678    -0.00034622     0.00034421
H        -0.97735223    -0.10781709     1.83190998     0.00072906    -0.00046855    -0.00022686
H        -0.95881307     0.09198456    -0.51559024    -0.00014427    -0.00016541    -0.00063117
     6
  Step:     4            Position(A)                                  Velocity(au)
C        -0.04228654     0.00357683     0.00694315     0.00004204     0.00005161     0.00017895
N        -0.03803902    -0.04072336     1.30964589    -0.00020300     0.00006300    -0.00008539
H         0.93242153     0.01482088    -0.52531584     0.00009546    -0.00050526    -0.00035157
H         0.82011804    -0.14207908     1.82427984     0.00164557    -0.00037241     0.00046990
H        -0.97292529    -0.11039117     1.83053683     0.00088409    -0.00047402    -0.00027138
H        -0.96005806     0.09115517    -0.51949251    -0.00030508    -0.00013881    -0.00079257
     6
  Step:     5            Position(A)                                  Velocity(au)
C        -0.04203029     0.00385437     0.00785811     0.00005142     0.00005004     0.00015467
N        -0.03919341    -0.04037528     1.30926320    -0.00021719     0.00006422    -0.00005347
H         0.93300842     0.01207147    -0.52741698     0.00011624    -0.00050104    -0.00041542
H         0.82937287    -0.14417876     1.82715110     0.00171723    -0.00039309     0.00056568
H        -0.96768853    -0.11299846     1.82894359     0.00102347    -0.00048080    -0.00030631
H        -0.96214787     0.09046727    -0.52425357    -0.00045141    -0.00011377    -0.00094392
     6
  Step:     6            Position(A)                                  Velocity(au)
C        -0.04172441     0.00412389     0.00863400     0.00006010     0.00004865     0.00012805
N        -0.04041334    -0.04002136     1.30906139    -0.00022682     0.00006513    -0.00001943
H         0.93369224     0.00934358    -0.52985710     0.00013054    -0.00049715    -0.00047521
H         0.83889039    -0.14637621     1.83046369     0.00174143    -0.00040799     0.00063144
H        -0.96173688    -0.11564716     1.82718830     0.00114343    -0.00048916    -0.00032950
H        -0.96499277     0.08991146    -0.52981125    -0.00057959    -0.00009055    -0.00108245
     6
  Step:     7            Position(A)                                  Velocity(au)
C        -0.04137312     0.00438636     0.00925824     0.00006793     0.00004743     0.00009922
N        -0.04167348    -0.03966312     1.30905074    -0.00023174     0.00006578     0.00001618
H         0.93443583     0.00663553    -0.53261308     0.00013779    -0.00049343    -0.00053047
H         0.84841421    -0.14863980     1.83405543     0.00171969    -0.00041708     0.00066817
H        -0.95518588    -0.11834713     1.82534068     0.00124024    -0.00049945    -0.00033888
H        -0.96848527     0.08947715    -0.53608939    -0.00068677    -0.00006935    -0.00120581
     6
  Step:     8            Position(A)                                  Velocity(au)
C        -0.04098143     0.00464268     0.00971924     0.00007479     0.00004636     0.00006842
N        -0.04294806    -0.03930186     1.30923833    -0.00023193     0.00006622     0.00005272
H         0.93519935     0.00394644    -0.53565936     0.00013759    -0.00048979    -0.00058080
H         0.85770032    -0.15093826     1.83777213     0.00165496    -0.00042054     0.00067772
H        -0.94817112    -0.12111010     1.82348167     0.00131041    -0.00051202    -0.00033249
H        -0.97250469     0.08915292    -0.54300044    -0.00077102    -0.00005028    -0.00131224
     6
  Step:     9            Position(A)                                  Velocity(au)
C        -0.04055477     0.00489366     0.01000690     0.00008062     0.00004543     0.00003598
N        -0.04421143    -0.03893854     1.30962764    -0.00022750     0.00006650     0.00008952
H         0.93594141     0.00127601    -0.53896851     0.00012980    -0.00048614    -0.00062593
H         0.86652372    -0.15324157     1.84147145     0.00155134    -0.00041868     0.00066259
H        -0.94084661    -0.12394991     1.82170238     0.00135095    -0.00052729    -0.00030870
H        -0.97692217     0.08892699    -0.55044862    -0.00083129    -0.00003338    -0.00140054
     6
  Step:    10            Position(A)                                  Velocity(au)
C        -0.04009885     0.00513998     0.01011310     0.00008540     0.00004460     0.00000229
N        -0.04543861    -0.03857379     1.31021834    -0.00021861     0.00006672     0.00012588
H         0.93662036    -0.00137559    -0.54251178     0.00011450    -0.00048243    -0.00066570
H         0.87468385    -0.15552178     1.84502596     0.00141367    -0.00041194     0.00062570
H        -0.93338144    -0.12688267     1.82010213     0.00135959    -0.00054568    -0.00026629
H        -0.98160536     0.08878750    -0.55833304    -0.00086741    -0.00001863    -0.00147015
     6
  Step:    11            Position(A)                                  Velocity(au)
C        -0.03961940     0.00538220     0.01003195     0.00008914     0.00004387    -0.00003221
N        -0.04660584    -0.03820777     1.31100639    -0.00020554     0.00006694     0.00016116
H         0.93719548    -0.00400797    -0.54625983     0.00009197    -0.00047865    -0.00070010
H         0.88200742    -0.15775353     1.84832470     0.00124714    -0.00040087     0.00057019
H        -0.92595521    -0.12992669     1.81878575     0.00133501    -0.00056759    -0.00020458
H        -0.98642285     0.08872292    -0.56655095    -0.00088000    -0.00000595    -0.00152107
     6
  Step:    12            Position(A)                                  Velocity(au)
C        -0.03912202     0.00562075     0.00976011     0.00009189     0.00004321    -0.00006706
N        -0.04769094    -0.03784024     1.31198431    -0.00018864     0.00006725     0.00019477
H         0.93762814    -0.00662065    -0.55018349     0.00006269    -0.00047482    -0.00072925
H         0.88834998    -0.15991447     1.85127408     0.00105712    -0.00038603     0.00049926
H        -0.91875245    -0.13310235     1.81786035     0.00127703    -0.00059338    -0.00012356
H        -0.99124833     0.08872232    -0.57500087    -0.00087028     0.00000480    -0.00155383
     6
  Step:    13            Position(A)                                  Velocity(au)
C        -0.03861204     0.00585594     0.00929675     0.00009369     0.00004260    -0.00010181
N        -0.04867386    -0.03747058     1.31314160    -0.00016834     0.00006770     0.00022624
H         0.93788275    -0.00921322    -0.55425436     0.00002731    -0.00047096    -0.00075337
H         0.89359618    -0.16198543     1.85379791     0.00084881    -0.00036803     0.00041605
H        -0.91195567    -0.13643165     1.81743123     0.00118675    -0.00062327    -0.00002399
H        -0.99596341     0.08877559    -0.58358499    -0.00083993     0.00001379    -0.00156931
     6
  Step:    14            Position(A)                                  Velocity(au)
C        -0.03809453     0.00608795     0.00864358     0.00009461     0.00004202    -0.00013601
N        -0.04953707    -0.03709779     1.31446540    -0.00014513     0.00006837     0.00025519
H         0.93792766    -0.01178546    -0.55844544    -0.00001340    -0.00046710    -0.00077276
H         0.89765865    -0.16395052     1.85583677     0.00062720    -0.00034745     0.00032354
H        -0.90573776    -0.13993754     1.81759728     0.00106665    -0.00065736     0.00009254
H        -1.00045953     0.08887359    -0.59221096    -0.00079089     0.00002121    -0.00156866
     6
  Step:    15            Position(A)                                  Velocity(au)
C        -0.03757420     0.00631685     0.00780466     0.00009469     0.00004143    -0.00016926
N        -0.05026598    -0.03672061     1.31594104    -0.00011959     0.00006928     0.00028136
H         0.93773576    -0.01433740    -0.56273159    -0.00005857    -0.00046330    -0.00078778
H         0.90047660    -0.16579702     1.85734722     0.00039695    -0.00032488     0.00022455
H        -0.90025437    -0.14364291     1.81844638     0.00092055    -0.00069553     0.00022359
H        -1.00463957     0.08900829    -0.60079336    -0.00072529     0.00002727    -0.00155320
     6
  Step:    16            Position(A)                                  Velocity(au)
C        -0.03705550     0.00654259     0.00678629     0.00009399     0.00004083    -0.00020117
N        -0.05084935    -0.03633760     1.31755273    -0.00009235     0.00007046     0.00030459
H         0.93728500    -0.01686928    -0.56708975    -0.00010724    -0.00045959    -0.00079882
H         0.90201432    -0.16751538     1.85830079     0.00016246    -0.00030085     0.00012173
H        -0.89563662    -0.14756953     1.82005071     0.00075349    -0.00073743     0.00036591
H        -1.00841815     0.08917277    -0.60925419    -0.00064525     0.00003215    -0.00152426
     6
  Step:    17            Position(A)                                  Velocity(au)
C        -0.03654264     0.00676501     0.00559672     0.00009253     0.00004020    -0.00023139
N        -0.05127960    -0.03594728     1.31928407    -0.00006411     0.00007191     0.00032481
H         0.93655877    -0.01938158    -0.57149907    -0.00015840    -0.00045597    -0.00080627
H         0.90225974    -0.16909901     1.85868324    -0.00007204    -0.00027591     0.00001759
H        -0.89198443    -0.15173655     1.82246242     0.00057162    -0.00078244     0.00051552
H        -1.01172147     0.08936120    -0.61752291    -0.00055283     0.00003608    -0.00148316
     6
  Step:    18            Position(A)                                  Velocity(au)
C        -0.03603971     0.00698386     0.00424607     0.00009034     0.00003950    -0.00025960
N        -0.05155314    -0.03554822     1.32111850    -0.00003561     0.00007360     0.00034201
H         0.93554614    -0.02187487    -0.57594088    -0.00021097    -0.00045245    -0.00081046
H         0.90122351    -0.17054429     1.85849388    -0.00030244    -0.00025057    -0.00008542
H        -0.88936141    -0.15615912     1.82571000     0.00038186    -0.00082968     0.00066783
H        -1.01448706     0.08956884    -0.62553624    -0.00045006     0.00003923    -0.00143114
     6
  Step:    19            Position(A)                                  Velocity(au)
C        -0.03555066     0.00719878     0.00274614     0.00008742     0.00003873    -0.00028548
N        -0.05167058    -0.03513914     1.32303957    -0.00000762     0.00007549     0.00035621
H         0.93424218    -0.02434974    -0.58039848    -0.00026384    -0.00044899    -0.00081173
H         0.89893875    -0.17185047     1.85774527    -0.00052460    -0.00022537    -0.00018486
H        -0.88779141    -0.16084693     1.82979560     0.00019156    -0.00087797     0.00081788
H        -1.01666340     0.08979195    -0.63323773    -0.00033886     0.00004178    -0.00136932
     6
  Step:    20            Position(A)                                  Velocity(au)
C        -0.03507949     0.00740930     0.00111030     0.00008377     0.00003787    -0.00030875
N        -0.05163684    -0.03471905     1.32503108     0.00001906     0.00007752     0.00036743
H         0.93264807    -0.02680664    -0.58485694    -0.00031586    -0.00044556    -0.00081032
H         0.89546132    -0.17301980     1.85646336    -0.00073421    -0.00020086    -0.00027825
H        -0.88725734    -0.16580284     1.83469366     0.00000813    -0.00092597     0.00096057
H        -1.01820910     0.09002774    -0.64057695    -0.00022107     0.00004389    -0.00129874
     6
  Step:    21            Position(A)                                  Velocity(au)
C        -0.03463019     0.00761487    -0.00064657     0.00007938     0.00003689    -0.00032912
N        -0.05146111    -0.03428729     1.32707707     0.00004366     0.00007963     0.00037570
H         0.93077130    -0.02924580    -0.58930276    -0.00036585    -0.00044209    -0.00080647
H         0.89087083    -0.17405764     1.85468769    -0.00092681    -0.00017763    -0.00036304
H        -0.88770209    -0.17102195     1.84035085    -0.00016139    -0.00097213     0.00109091
H        -1.01909261     0.09027424    -0.64750903    -0.00009852     0.00004571    -0.00122039
     6
  Step:    22            Position(A)                                  Velocity(au)
C        -0.03420680     0.00781484    -0.00250816     0.00007424     0.00003578    -0.00034632
N        -0.05115677    -0.03384355     1.32916169     0.00006545     0.00008175     0.00038102
H         0.92862576    -0.03166713    -0.59372360    -0.00041262    -0.00043850    -0.00080035
H         0.88527160    -0.17497268     1.85247193    -0.00109773    -0.00015630    -0.00043662
H        -0.88903172    -0.17649088     1.84668754    -0.00031072    -0.00101490     0.00120433
H        -1.01929224     0.09053030    -0.65399440     0.00002694     0.00004738    -0.00113524
     6
  Step:    23            Position(A)                                  Velocity(au)
C        -0.03381337     0.00800849    -0.00445679     0.00006838     0.00003453    -0.00036013
N        -0.05074105    -0.03338792     1.33126900     0.00008374     0.00008380     0.00038336
H         0.92623171    -0.03407015    -0.59810810    -0.00045501    -0.00043471    -0.00079213
H         0.87879368    -0.17577720     1.84988408    -0.00124226    -0.00013753    -0.00049636
H        -0.89112057    -0.18218777     1.85360077    -0.00043461    -0.00105273     0.00129692
H        -1.01879622     0.09079550    -0.65999880     0.00015339     0.00004900    -0.00104432
     6
  Step:    24            Position(A)                                  Velocity(au)
C        -0.03345385     0.00819501    -0.00647356     0.00006182     0.00003312    -0.00037034
N        -0.05023468    -0.03292080     1.33338288     0.00009798     0.00008574     0.00038268
H         0.92361560    -0.03645374    -0.60244579    -0.00049194    -0.00043066    -0.00078197
H         0.87159296    -0.17648706     1.84700651    -0.00135575    -0.00012203    -0.00053971
H        -0.89381727    -0.18808260     1.86096805    -0.00052930    -0.00108427     0.00136571
H        -1.01760320     0.09106980    -0.66549357     0.00027892     0.00005068    -0.00094876
     6
  Step:    25            Position(A)                                  Velocity(au)
C        -0.03313204     0.00837359    -0.00853868     0.00005459     0.00003157    -0.00037685
N        -0.04966114    -0.03244285     1.33548686     0.00010773     0.00008754     0.00037895
H         0.92080953    -0.03881683    -0.60672689    -0.00052248    -0.00042636    -0.00077004
H         0.86385069    -0.17712223     1.84393546    -0.00143397    -0.00011051    -0.00056437
H        -0.89695451    -0.19413848     1.86865350    -0.00059263    -0.00110842     0.00140884
H        -1.01572204     0.09135413    -0.67045597     0.00040159     0.00005259    -0.00084975
     6
  Step:    26            Position(A)                                  Velocity(au)
C        -0.03285148     0.00854337    -0.01063180     0.00004678     0.00002987    -0.00037962
N        -0.04904599    -0.03195487     1.33756424     0.00011271     0.00008917     0.00037216
H         0.91785053    -0.04115826    -0.61094248    -0.00054584    -0.00042184    -0.00075654
H         0.85577029    -0.17770648     1.84077922    -0.00147348    -0.00010363    -0.00056845
H        -0.90035645    -0.20031312     1.87651339    -0.00062392    -0.00112448     0.00142559
H        -1.01317203     0.09165006    -0.67486987     0.00051952     0.00005483    -0.00074864
     6
  Step:    27            Position(A)                                  Velocity(au)
C        -0.03261523     0.00870353    -0.01273242     0.00003848     0.00002802    -0.00037869
N        -0.04841596    -0.03145771     1.33959821     0.00011283     0.00009066     0.00036236
H         0.91477948    -0.04347700    -0.61508458    -0.00056151    -0.00041717    -0.00074172
H         0.84757280    -0.17826702     1.83765559    -0.00147192    -0.00010192    -0.00055071
H        -0.90384708    -0.20656090     1.88440237    -0.00062397    -0.00113213     0.00141638
H        -1.00998274     0.09195983    -0.67872637     0.00063094     0.00005753    -0.00064683
     6
  Step:    28            Position(A)                                  Velocity(au)
C        -0.03242582     0.00885330    -0.01482043     0.00002982     0.00002604    -0.00037424
N        -0.04779800    -0.03095215     1.34157222     0.00010816     0.00009201     0.00034967
H         0.91163981    -0.04577243    -0.61914640    -0.00056923    -0.00041247    -0.00072585
H         0.83948980    -0.17883377     1.83468798    -0.00142845    -0.00010577    -0.00051067
H        -0.90725797    -0.21283525     1.89217962    -0.00059488    -0.00113151     0.00138272
H        -1.00619338     0.09228634    -0.68202433     0.00073425     0.00006081    -0.00054581
     6
  Step:    29            Position(A)                                  Velocity(au)
C        -0.03228506     0.00899194    -0.01687665     0.00002092     0.00002395    -0.00036650
N        -0.04721818    -0.03043882     1.34347038     0.00009898     0.00009328     0.00033429
H         0.90847594    -0.04804463    -0.62312243    -0.00056904    -0.00040793    -0.00070923
H         0.83175444    -0.17943834     1.83200052    -0.00134392    -0.00011536    -0.00044880
H        -0.91043470    -0.21909100     1.89971427    -0.00053975    -0.00112320     0.00132694
H        -1.00185180     0.09263319    -0.68477060     0.00082812     0.00006480    -0.00044703
     6
  Step:    30            Position(A)                                  Velocity(au)
C        -0.03219396     0.00911884    -0.01888327     0.00001193     0.00002177    -0.00035579
N        -0.04670078    -0.02991809     1.34527801     0.00008570     0.00009452     0.00031650
H         0.90533168    -0.05029463    -0.62700866    -0.00056124    -0.00040377    -0.00069218
H         0.82459159    -0.18011265     1.82971277    -0.00122096    -0.00013060    -0.00036650
H        -0.91324145    -0.22528661     1.90688962    -0.00046230    -0.00110811     0.00125202
H        -0.99701313     0.09300471    -0.68697997     0.00091151     0.00006965    -0.00035187
     6
  Step:    31            Position(A)                                  Velocity(au)
C        -0.03215270     0.00923345    -0.02082437     0.00000301     0.00001950    -0.00034251
N        -0.04626732    -0.02939011     1.34698216     0.00006890     0.00009577     0.00029668
H         0.90224870    -0.05252465    -0.63080253    -0.00054638    -0.00040023    -0.00067498
H         0.81820722    -0.18088738     1.82793398    -0.00106396    -0.00015110    -0.00026615
H        -0.91556414    -0.23138608     1.91360618    -0.00036660    -0.00108744     0.00116129
H        -0.99173813     0.09340604    -0.68867475     0.00098367     0.00007552    -0.00026155
     6
  Step:    32            Position(A)                                  Velocity(au)
C        -0.03216057     0.00933532    -0.02268611    -0.00000570     0.00001716    -0.00032705
N        -0.04593578    -0.02885473     1.34857205     0.00004926     0.00009710     0.00027525
H         0.89926528    -0.05473829    -0.63450285    -0.00052520    -0.00039757    -0.00065785
H         0.81277852    -0.18179026     1.82675778    -0.00087879    -0.00017620    -0.00015090
H        -0.91731172    -0.23736035     1.91978331    -0.00025677    -0.00106258     0.00105817
H        -0.98609148     0.09384319    -0.68988393     0.00104418     0.00008256    -0.00017713
     6
  Step:    33            Position(A)                                  Velocity(au)
C        -0.03221603     0.00942404    -0.02445696    -0.00001406     0.00001476    -0.00030980
N        -0.04572015    -0.02831162     1.35003938     0.00002752     0.00009852     0.00025264
H         0.89641521    -0.05694054    -0.63810945    -0.00049853    -0.00039606    -0.00064096
H         0.80844631    -0.18284443     1.82625791    -0.00067245    -0.00020498    -0.00002457
H        -0.91841610    -0.24318841     1.92535949    -0.00013668    -0.00103495     0.00094593
H        -0.98014021     0.09432307    -0.69064217     0.00109277     0.00009097    -0.00009945
     6
  Step:    34            Position(A)                                  Velocity(au)
C        -0.03231676     0.00949927    -0.02612754    -0.00002194     0.00001230    -0.00029113
N        -0.04563003    -0.02776029     1.35137845     0.00000446     0.00010007     0.00022931
H         0.89372742    -0.05913787    -0.64162287    -0.00046726    -0.00039594    -0.00062435
H         0.80530867    -0.18406725     1.82648488    -0.00045274    -0.00023632     0.00010861
H        -0.91883006    -0.24885696     1.93029107    -0.00000984    -0.00100590     0.00082755
H        -0.97395254     0.09485375    -0.69098861     0.00112932     0.00010096    -0.00002916
     6
  Step:    35            Position(A)                                  Velocity(au)
C        -0.03245969     0.00956064    -0.02769039    -0.00002921     0.00000977    -0.00027133
N        -0.04567061    -0.02720018     1.35258617    -0.00001916     0.00010174     0.00020567
H         0.89122563    -0.06133809    -0.64504375    -0.00043227    -0.00039744    -0.00060795
H         0.80341800    -0.18546910     1.82746417    -0.00022771    -0.00026891     0.00024419
H        -0.91852541    -0.25436039     1.93455066     0.00012065    -0.00097672     0.00070565
H        -0.96759742     0.09544441    -0.69096602     0.00115372     0.00011276     0.00003322
     6
  Step:    36            Position(A)                                  Velocity(au)
C        -0.03264103     0.00960777    -0.02913974    -0.00003576     0.00000717    -0.00025063
N        -0.04584277    -0.02663077     1.35366179    -0.00004260     0.00010352     0.00018211
H         0.88892843    -0.06355014    -0.64837224    -0.00039442    -0.00040070    -0.00059159
H         0.80278066    -0.18705266     1.82919578    -0.00000532    -0.00030136     0.00037774
H        -0.91749063    -0.25970030     1.93812505     0.00025207    -0.00094856     0.00058247
H        -0.96114420     0.09610554    -0.69061983     0.00116582     0.00012659     0.00008731
     6
  Step:    37            Position(A)                                  Velocity(au)
C        -0.03285639     0.00964020    -0.03047118    -0.00004147     0.00000447    -0.00022925
N        -0.04614331    -0.02605160     1.35460672    -0.00006518     0.00010539     0.00015896
H         0.88684953    -0.06578390    -0.65160741    -0.00035452    -0.00040588    -0.00057498
H         0.80335898    -0.18881272     1.83165515     0.00020698    -0.00033226     0.00050505
H        -0.91572871    -0.26488469     1.94101315     0.00038203    -0.00092247     0.00045993
H        -0.95466262     0.09684889    -0.68999735     0.00116550     0.00014269     0.00013284
     6
  Step:    38            Position(A)                                  Velocity(au)
C        -0.03310077     0.00965738    -0.03168129    -0.00004624     0.00000167    -0.00020730
N        -0.04656541    -0.02546232     1.35542408    -0.00008628     0.00010733     0.00013647
H         0.88499801    -0.06804993    -0.65474673    -0.00031333    -0.00041305    -0.00055775
H         0.80507536    -0.19073623     1.83479504     0.00040253    -0.00036022     0.00062230
H        -0.91325527    -0.26992732     1.94322413     0.00050839    -0.00089936     0.00033969
H        -0.94822288     0.09768751    -0.68914709     0.00115252     0.00016131     0.00016962
