12

C       -0.03687951     0.00811361    -0.02403972
N       -0.05323195    -0.02507513     1.35483274
H        0.82994509    -0.36332033    -0.68181687
H        0.85557770     0.07060619     1.86511608
H       -0.83754173    -0.57237086     1.81756580
H       -0.88171939     0.44706303    -0.64959200
C       -0.03699092     0.00811736    -0.02459299
N       -0.05329972    -0.02533739     1.35456316
H        0.82780232    -0.37087431    -0.67838424
H        0.85245209     0.07968181     1.86673006
H       -0.83324943    -0.57895206     1.81925417
H       -0.87847382     0.45572229    -0.64598795
