6

C   -0.04100368    0.01306147    0.01866963    0.00000173   -0.00010102   -0.00033631
N   -0.05381258   -0.06557260    1.29807793   -0.00004883    0.00010124    0.00022610
H    0.96161951    0.04877455   -0.51541316   -0.00027896    0.00028218    0.00049760
H    0.87252786   -0.07655758    1.83280778    0.00029237   -0.00033715    0.00032586
H   -0.85141243    0.02126844    1.84369415    0.00052149   -0.00057275   -0.00020670
H   -0.95927134    0.09231591   -0.53006355    0.00012304    0.00042461    0.00024869
