     6
  Step:   300            Position(A)                                  Velocity(au)
C        -0.01703540     0.01755560     0.02480599    -0.00009827     0.00010590     0.00012030
N        -0.06336077    -0.05249260     1.29241770     0.00031037    -0.00001956    -0.00016854
H         0.27125983     0.94549797    -0.48523818    -0.00097843     0.00000208    -0.00070037
H        -0.05600105    -0.97679303     1.75079575    -0.00279152     0.00001905     0.00037944
H        -0.06696971     0.78975546     1.86995539    -0.00047408    -0.00052181     0.00057857
H        -0.27774197    -0.90797824    -0.49894486     0.00110202    -0.00048946     0.00065094
