    14
  Step:   600            Position(A)                                  Velocity(au)
C        -5.48078738    -0.84800915    -0.61300208     0.00003180    -0.00041606    -0.00022570
C        -4.29819049    -0.58195573    -0.10942659     0.00046689    -0.00057802     0.00018496
H        -6.45722990    -0.28332373    -0.56445112     0.00083144     0.00013930     0.00271727
H        -5.44217456    -1.71124909    -1.37521438    -0.00103721     0.00240117    -0.00370445
H        -3.27228358    -0.99440246    -0.51040461    -0.00017648     0.00248484    -0.00136870
C        -4.00398554     0.45013081     0.80479043    -0.00065733     0.00047177     0.00057272
C        -2.98505060     1.33855080     0.89577081     0.00000395     0.00050818    -0.00010170
H        -4.64682028     0.46034367     1.69282151    -0.00070468    -0.00189876     0.00100292
H        -2.85299763     2.01976669     1.76061680     0.00000730    -0.00074354    -0.00009587
C        -2.04843125     1.24955536    -0.14584724    -0.00014764     0.00027861    -0.00000521
H        -2.58381674     0.94332615    -1.09118702     0.00368239     0.00129189    -0.00367801
N        -0.73693135     1.42394997    -0.29578628     0.00031073    -0.00022105     0.00020015
H        -0.05075888     1.35197295    -1.12812666    -0.00356952    -0.00310814    -0.00350227
H        -0.20786563     1.90247250     0.42162186     0.00025163    -0.00064658     0.00078235
