     6
  Step:   120            Position(A)                                  Velocity(au)
C        -0.03810661     0.00600658    -0.12590906    -0.00003619    -0.00008322     0.00052877
N        -0.03000517    -0.11809974     1.43166538     0.00008995     0.00004241    -0.00046648
H         0.87249832    -0.16486693    -0.72239115    -0.00045008    -0.00120988     0.00012574
H         0.58193270     0.63927466     1.82588207    -0.00157996     0.00130285    -0.00073583
H        -0.94520429    -0.22412059     1.94039318     0.00013749    -0.00128956    -0.00002160
H        -0.85111886     0.64953092    -0.54643503     0.00107381     0.00159900     0.00081325
