     6
  Step:   120            Position(A)                                  Velocity(au)
C        -0.04657920    -0.07368473    -0.00508104    -0.00001730    -0.00026498    -0.00039484
N        -0.04524051     0.00414138     1.33878957    -0.00008555     0.00010388     0.00023685
H         0.89578150     0.16595635    -0.64321470     0.00069532     0.00030568     0.00048888
H         0.85031292    -0.23503363     1.82068546     0.00067155     0.00034721     0.00003873
H        -0.92395629    -0.30105829     1.79651607     0.00025277    -0.00037603     0.00010260
H        -0.85133447     0.52083599    -0.62566898    -0.00022459     0.00143718     0.00078334
