     6
  Step:   300            Position(A)                                  Velocity(au)
C        -0.03335778     0.01448363     0.01284004     0.00000643    -0.00003039     0.00010772
N        -0.04543667    -0.04943105     1.30176693    -0.00000171     0.00005036    -0.00007298
H         0.90223310    -0.04865555    -0.53707921    -0.00025912     0.00082701    -0.00033686
H         0.79310843    -0.10918858     1.88282148    -0.00017752    -0.00104345     0.00015459
H        -0.91346246    -0.12240876     1.83832604     0.00014502     0.00061458     0.00014813
H        -0.96592100     0.12481050    -0.53483885     0.00023873    -0.00073583    -0.00023540
