12

C       -0.04224539    -0.02723719    -0.22293943
N       -0.04907516    -0.14356334     1.51377826
H        0.90674885     0.46359606    -0.53563262
H        0.84060093     0.23322565     1.86746094
H       -0.79748702     0.54246405     1.83180533
H       -0.97742132     0.41049107    -0.65103251
C       -0.04235596    -0.02769588    -0.22323698
N       -0.04917929    -0.14366774     1.51397194
H        0.90505890     0.46928597    -0.53041103
H        0.84302918     0.23115351     1.86771667
H       -0.79491932     0.54636472     1.82687554
H       -0.97796268     0.40988921    -0.65072578
