     6
  Step:   120            Position(A)                                  Velocity(au)
C        -0.04288503    -0.02189746    -0.17822717    -0.00001555    -0.00000349     0.00022592
N        -0.05029387    -0.13759596     1.48227599    -0.00003562    -0.00003911    -0.00016281
H         0.87248441     0.52529570    -0.49427115    -0.00028177     0.00130832     0.00091660
H         0.85729165     0.17067490     1.91534959     0.00025910    -0.00095963    -0.00013681
H        -0.73655596     0.61775551     1.69844965     0.00089398     0.00143228    -0.00114863
H        -0.99625227     0.18951994    -0.70196378    -0.00019109    -0.00119593    -0.00006087
