12

C       -0.03555708     0.02655535    -0.13371312
N       -0.03057482    -0.02006782     1.43931637
H        0.88014104     0.31902019    -0.70220354
H        0.59043539    -0.76795801     1.84826435
H       -0.91312675     0.18172201     1.97034284
H       -0.92180372    -0.44013520    -0.63228520
C       -0.03564547     0.02670801    -0.13060843
N       -0.03003727    -0.02001770     1.43679360
H        0.87674407     0.32558279    -0.70047729
H        0.58060557    -0.77432092     1.84245946
H       -0.91117895     0.18920696     1.97007863
H       -0.91694139    -0.45033556    -0.62988070
