12

C       -0.02724687     0.06965037    -0.12873746
N       -0.03868957     0.00976334     1.44621648
H        0.92541138    -0.02612510    -0.71005819
H        0.56790330    -0.84789708     1.60752595
H       -0.94490758    -0.19300657     1.92269034
H       -0.89901820    -0.56838703    -0.49120986
C       -0.02731222     0.06924435    -0.12616832
N       -0.03833436     0.00965061     1.44393336
H        0.92453264    -0.01709972    -0.70969999
H        0.56088850    -0.85263188     1.60279866
H       -0.94561413    -0.18474424     1.92412361
H       -0.89457554    -0.57453525    -0.48716080
