12

C       -0.04849832    -0.02865353     0.01639688
N       -0.03709919    -0.06972799     1.30816382
H        0.80312892    -0.20574076    -0.68799991
H        0.65513042     0.52012353     1.83926872
H       -0.85655045    -0.39157261     1.88697773
H       -0.72121103     0.71783157    -0.52030720
C       -0.04918893    -0.02862202     0.01643810
N       -0.03661019    -0.06935981     1.30791590
H        0.80281114    -0.21415326    -0.68540891
H        0.65037016     0.52568617     1.83885996
H       -0.85455438    -0.40063365     1.88495342
H       -0.71669493     0.72425066    -0.51751109
