     6
  Step:   300            Position(A)                                  Velocity(au)
C        -0.02233788     0.01774948     0.01346715    -0.00002363    -0.00006171    -0.00001363
N        -0.07018794    -0.05434881     1.30440307     0.00009969     0.00000964    -0.00001825
H         0.24545859    -0.88356444    -0.52448449     0.00009575    -0.00011192     0.00003396
H         0.13275107     0.78467837     1.85349305    -0.00054326     0.00027483    -0.00024959
H        -0.05914591    -0.97854476     1.74824232    -0.00057259     0.00004707    -0.00012660
H        -0.29045916     0.95140798    -0.47214027    -0.00008366     0.00039138     0.00075823
