    14
  Step:   600            Position(A)                                  Velocity(au)
C        -5.96268974    -0.61205950     0.33392421    -0.00113737    -0.00064324     0.00003597
C        -4.63822018    -0.52035941     0.24458060    -0.00055234     0.00029149    -0.00016490
H        -6.79708566     0.08123439     0.38812876    -0.00197866    -0.00079960     0.00042967
H        -6.10543061    -1.66193374     0.59077438    -0.00015994    -0.00131411    -0.00088065
H        -4.24884510    -1.52064654     0.62524249    -0.00202898     0.00071913    -0.00261513
C        -3.84911594     0.43730711    -0.62231981    -0.00006073    -0.00022308     0.00003913
C        -2.75088900     1.20715855    -0.59939125     0.00069227    -0.00049985     0.00044600
H        -4.29034801     0.40086356    -1.71156984    -0.00014128     0.00103680     0.00044413
H        -2.37708412     1.64389523    -1.52736654    -0.00210421     0.00118788     0.00134611
C        -1.82724908     1.26248991     0.51656991     0.00042507     0.00006259    -0.00029412
H        -2.25522603     1.40714446     1.59834867     0.00120464     0.00435523     0.00097062
N        -0.51099837     1.34825985     0.41193630     0.00072520     0.00031605     0.00002985
H        -0.02934341     1.16280062     1.27419933     0.00257675     0.00253338    -0.00013334
H        -0.02849622     1.24577552    -0.43876950     0.00009808    -0.00005057    -0.00071572
