     6
  Step:   120            Position(A)                                  Velocity(au)
C        -0.04547008     0.05830774     0.01780443    -0.00016209     0.00005925    -0.00023161
N        -0.03141781    -0.02894723     1.31685931     0.00006853    -0.00011157     0.00012158
H         0.83249510     0.15764466    -0.67391685     0.00040515     0.00147882     0.00057108
H         0.62954052    -0.70726248     1.76146104    -0.00057463    -0.00104598     0.00029541
H        -0.90125750     0.17594635     1.86905593     0.00053853     0.00185209    -0.00016695
H        -0.79528456    -0.58864907    -0.57623677     0.00061013    -0.00144059     0.00037079
