14

C       -5.04191126     0.16529295     0.75073652
C       -4.17103813    -0.64033554    -0.00456793
H       -5.36449037     1.17928291     0.44436028
H       -5.30623736    -0.28314279     1.70745265
H       -3.89956839    -1.59891698     0.26352805
C       -3.84380848     0.14870533    -1.17357902
C       -3.08131444     1.18670844    -0.68038778
H       -4.33693429     0.15618891    -2.18513296
H       -2.82343457     2.03286797    -1.26508223
C       -2.24261568     1.42113371     0.56629001
H       -2.10508896     2.42798964     1.08876555
N       -1.14176234     0.75213092     0.71917483
H       -0.47703186     0.83251082     1.51966841
H       -0.76917625     0.25506317    -0.10168257
