    14
  Step:   600            Position(A)                                  Velocity(au)
C        -5.76101344     0.11234500    -0.01933407    -0.00083240     0.00006236     0.00017416
C        -4.41699471     0.25223434     0.03959605    -0.00020952    -0.00035284    -0.00026971
H        -6.43635788    -0.77873539     0.08636965    -0.00054371     0.00047671     0.00106932
H        -6.24647842     1.11055675    -0.10604605     0.00084734     0.00015881    -0.00104767
H        -4.03455085     1.35324315    -0.03901042     0.00034555     0.00108914    -0.00154114
C        -3.29902822    -0.70058826    -0.14117232     0.00016928     0.00043055    -0.00021399
C        -2.16747424    -0.02733466    -0.41583557     0.00066589    -0.00011385     0.00031834
H        -3.37050010    -1.76001111    -0.06447503    -0.00005859    -0.00037431    -0.00034113
H        -1.24395093    -0.31425527    -0.97342902     0.00069916     0.00164252    -0.00315445
C        -2.27622559     1.42134279    -0.14023573     0.00009756    -0.00049859     0.00115621
H        -2.54155166     2.34279825    -0.83648134    -0.00040301     0.00094799    -0.00088944
N        -1.43574674     1.73925417     0.86870399     0.00000511     0.00004564    -0.00045655
H        -1.66936271     2.64769179     1.30021081     0.00092818    -0.00081711    -0.00170326
H        -0.93423749     1.26238732     1.64109405    -0.00058476     0.00187080     0.00006978
