6

C       -0.02613001     0.05629871     0.00077677
N       -0.05270954    -0.03711917     1.33691420
H        0.76665539    -0.48595680    -0.64828242
H        0.85746163     0.02662041     1.85508978
H       -0.85166005    -0.52475263     1.78598473
H       -0.94156172     0.15928028    -0.68824523
