14

C   -6.01057785   -0.80169472   -0.07316636    0.00034657    0.00022227   -0.00019549
C   -4.66240589   -0.73492371    0.18036585   -0.00027975    0.00008471   -0.00006777
H   -6.58781765    0.02720602   -0.44880218   -0.00002484    0.00033659    0.00067904
H   -6.48425241   -1.76423311   -0.14249250    0.00075201   -0.00080672    0.00034256
H   -4.17901024   -1.68246334    0.47842898    0.00029239    0.00009657    0.00071057
C   -3.92685390    0.46723206   -0.05821661    0.00003529   -0.00030684    0.00020684
C   -2.59362982    0.58807979    0.10616692    0.00030585    0.00031191   -0.00019668
H   -4.47585492    1.37555219   -0.32243823   -0.00122074   -0.00009557    0.00061227
H   -1.95655960   -0.25891793    0.41025782   -0.00094585   -0.00053035    0.00047561
C   -1.83174760    1.74632287   -0.09631653   -0.00042390   -0.00027071    0.00014066
H   -2.19206493    2.64930704   -0.60845172    0.00051304    0.00055314   -0.00056561
N   -0.53068670    1.70818167    0.27521358    0.00017682    0.00000280   -0.00002947
H    0.09695612    2.52330603    0.22627537   -0.00037487   -0.00021431   -0.00060509
H   -0.11460566    0.95962623    0.89547083   -0.00125823    0.00012899    0.00009999
