     6
  Step:   600            Position(A)                                  Velocity(au)
C        -0.10126439     0.04584581     0.05040169    -0.00043640     0.00074339     0.00113064
N        -0.07257175    -0.20452408     1.31208701     0.00009470     0.00002424    -0.00061061
H        -0.61206141     1.25800420    -0.49917233    -0.00335949    -0.00116595    -0.00233762
H         0.95653132    -0.17889071     1.32032265     0.00465442    -0.00672185    -0.00092293
H        -0.05690577     0.76397407     1.93423820    -0.00249864     0.00131840    -0.00303375
H         0.71459508    -0.21721340    -0.69755053     0.00508787    -0.00262573     0.00130679
