     6
  Step:   600            Position(A)                                  Velocity(au)
C         0.02620458     0.13463438     0.04002779    -0.00055586     0.00111572     0.00044991
N        -0.11279017    -0.16698036     1.32201796    -0.00020497    -0.00014137     0.00002631
H         0.51849284     1.00455268    -0.46877519     0.00216196    -0.00136060    -0.00304126
H         0.92343377     0.64091383     2.04508444     0.00298477    -0.00614560     0.00012861
H        -0.36486566    -1.19468802     1.54291381     0.00245839     0.00274095     0.00194401
H        -1.03454064    -0.40407033    -1.07516945     0.00186692    -0.00656524    -0.00475810
