6

C        0.12536356     0.09852453     0.15179539
N       -0.14610673    -0.08107555     1.16114425
H        0.88047807    -0.46214519    -0.30558787
H        0.61639189    -0.26664677     1.79517498
H       -1.39001043    -0.37342575     1.86767582
H       -0.78342474     0.38469795    -0.40968815
