14

C       -5.90442117    -0.78775736     0.25175170
C       -4.68348023    -0.09529621     0.37764578
H       -5.93140197    -1.20091779    -0.73506429
H       -6.54013059    -0.62460177     1.11918249
H       -4.41337009     0.33272082     1.34733256
C       -3.68074364     0.04104968    -0.66513271
C       -2.56968188     0.65559081    -0.69750115
H       -3.95184521    -0.79497871    -1.47973390
H       -1.78462924     0.45958574    -1.36143339
C       -1.92372683     1.33702290     0.44582452
H       -2.60472775     1.55293345     1.25729076
N       -0.75797878     1.80847226     0.53039997
H       -0.32900839     2.30729209     1.27907240
H       -0.31540743     1.76719232    -0.35846732
