12

C       -0.04373288    -0.02069568    -0.21618909
N       -0.04762457    -0.14223935     1.50661750
H        0.90442347     0.41737912    -0.48634265
H        0.85360027     0.30407372     1.86841803
H       -0.81460567     0.47670072     1.77633594
H       -0.97342210     0.35529885    -0.62673896
C       -0.04395605    -0.02045669    -0.21644130
N       -0.04727851    -0.14200529     1.50668935
H        0.90552315     0.41984451    -0.48192681
H        0.85367015     0.29732501     1.86900325
H       -0.81561140     0.48042362     1.77373877
H       -0.97573554     0.34975878    -0.62713591
