     6
  Step:   300            Position(A)                                  Velocity(au)
C        -0.00846439     0.01375794     0.01924932    -0.00001298    -0.00000870    -0.00005287
N        -0.08052062    -0.05379305     1.29806010     0.00005009    -0.00003011     0.00006116
H         0.17033906    -0.90003959    -0.55074075     0.00103246     0.00020219    -0.00008495
H        -0.00133668     0.79054596     1.86919228     0.00084398     0.00034134    -0.00073542
H        -0.02962747    -0.93903467     1.81319510    -0.00141112    -0.00012789     0.00016965
H        -0.13251827     0.96232334    -0.50727851    -0.00100666     0.00010650     0.00043074
