6

C       -0.01140696     0.01700256     0.02142199
N       -0.07585443    -0.05437931     1.29781444
H        0.31908137     0.94025994    -0.46046012
H        0.01624948    -0.98076972     1.73179844
H       -0.03374296     0.79775360     1.86029258
H       -0.32449293    -0.87395258    -0.52973621
