6

C       -0.04298017    -0.02203031    -0.17410525
N       -0.05062193    -0.13648127     1.47842750
H        0.86580965     0.53824676    -0.48867273
H        0.85966791     0.15059474     1.92187489
H       -0.72771198     0.62729735     1.69646843
H       -0.99510520     0.17320006    -0.70774321
