    14
  Step:   600            Position(A)                                  Velocity(au)
C        -5.45270239    -0.28102942     0.74556520    -0.00041411    -0.00061574    -0.00031597
C        -4.51165413    -0.46682734    -0.14694752    -0.00087214     0.00061616     0.00011824
H        -6.08903621     0.57051345     0.68965652    -0.00155029    -0.00029969     0.00253605
H        -5.74174314    -0.98732168     1.52358611    -0.00088511    -0.00127969    -0.00242391
H        -3.76258239    -1.24039851    -0.05457820     0.00309704     0.00155840    -0.00007803
C        -3.98135879     0.77237076    -0.96335523     0.00002920    -0.00040882    -0.00036840
C        -2.68706237     0.98515723    -0.74629433    -0.00020296    -0.00010722     0.00009055
H        -4.43728657     1.08215299    -1.86894728    -0.00118435    -0.00037024     0.00213752
H        -1.97421393     1.38589766    -1.39788901     0.00041768    -0.00202059    -0.00227052
C        -2.10780880     0.95814345     0.59560462     0.00064060     0.00095082     0.00058557
H        -2.65703544     0.44253685     1.38340946     0.00125467     0.00001682    -0.00077989
N        -0.82115058     1.08531013     0.66410479     0.00054633    -0.00022340    -0.00001501
H        -0.18049458     0.91412636     1.50231882     0.00044514     0.00025179     0.00134788
H        -0.40568334     1.94336546     0.14888559     0.00057744     0.00006181    -0.00157130
