     6
  Step:   300            Position(A)                                  Velocity(au)
C        -0.03987152     0.01548821     0.01146785    -0.00000060    -0.00000357     0.00026984
N        -0.03761343    -0.05704817     1.30486838    -0.00002729     0.00004136    -0.00022798
H         0.88988971    -0.17782208    -0.54667753     0.00013358     0.00192573     0.00025939
H         0.81547658     0.05452994     1.86428520     0.00012474    -0.00236163    -0.00040171
H        -0.92820496    -0.17577565     1.79561553     0.00009680     0.00205340     0.00036098
H        -0.99229788     0.23748894    -0.49074706     0.00003138    -0.00214978    -0.00026603
