    14
  Step:   600            Position(A)                                  Velocity(au)
C        -5.51585698    -1.09935395    -0.36783464    -0.00020556    -0.00044907    -0.00034579
C        -4.95834136     0.12911598    -0.31165118    -0.00073267     0.00017558    -0.00022188
H        -5.63830012    -1.87447066     0.36952157    -0.00235670    -0.00085524     0.00043855
H        -5.58300616    -1.52618550    -1.38461001     0.00342556    -0.00081728     0.00059000
H        -4.83272271     0.61908982    -1.27240344     0.00245652     0.00044033    -0.00001650
C        -4.11589201     0.42198459     0.85640610     0.00029757    -0.00033493     0.00036496
C        -2.81189612     0.95729754     0.57721726    -0.00020063     0.00066631     0.00030926
H        -4.44469900     0.14126229     1.84658864     0.00046083     0.00100192     0.00060300
H        -2.46037706     1.51745164     1.62859391    -0.00190018    -0.00039442    -0.00041364
C        -1.68299491     1.03802489    -0.32640726     0.00058169     0.00058048     0.00050488
H        -1.48994978     0.18210517    -1.07267159    -0.00137777    -0.00080032    -0.00069793
N        -0.58518045     1.65002556    -0.04628738     0.00007010    -0.00037003    -0.00046694
H         0.36579181     1.09098119    -0.38173827    -0.00006689     0.00090207    -0.00094732
H        -0.34003655     2.31833754     0.82606755     0.00147803    -0.00194187    -0.00035323
