6

C       -0.03114594     0.05571461    -0.19140870
N       -0.03468890    -0.00223554     1.49721386
H        0.92616684    -0.06140357    -0.71985844
H        0.68244516    -0.71566079     1.79615608
H       -0.97397570    -0.16225715     1.90337387
H       -0.99437992    -0.36328587    -0.61260924
