6

C       -0.04006905     0.01649387     0.01309011
N       -0.04299958    -0.06013645     1.30030614
H        0.90905513    -0.05707923    -0.51804608
H        0.82805833    -0.01388838     1.82956481
H       -0.89501194    -0.13106178     1.87101709
H       -0.98004406     0.17136891    -0.51600178
