     6
  Step:   300            Position(A)                                  Velocity(au)
C        -0.02012001    -0.00431125     0.02664292    -0.00006214    -0.00002649    -0.00009730
N        -0.03487648    -0.05034324     1.29016568     0.00019047     0.00004946     0.00008281
H         0.13434079    -0.85543891    -0.64166748    -0.00138774     0.00013615    -0.00032693
H        -0.23180204     0.80868848     1.83556364    -0.00259628    -0.00054574     0.00030203
H        -0.27866959    -0.86990086     1.84631418     0.00049578     0.00005335     0.00032678
H        -0.11240858     0.99782155    -0.39425392     0.00158183    -0.00001541    -0.00029321
