     6
  Step:   120            Position(A)                                  Velocity(au)
C        -0.02861388     0.06710156    -0.18418862     0.00000718    -0.00002062     0.00021227
N        -0.04100223     0.01589387     1.49980020     0.00006285     0.00000387    -0.00016437
H         0.92331140    -0.12100714    -0.70112620     0.00016878     0.00127658    -0.00013804
H         0.65046335    -0.79887568     1.62545456    -0.00124575    -0.00080882    -0.00100102
H        -0.94438715    -0.31474142     1.87072260    -0.00028002     0.00103120     0.00015256
H        -0.93157956    -0.45560054    -0.54994262     0.00039809    -0.00130703     0.00074119
