14

C       -5.13138130    -0.72499422     0.71463836
C       -4.76714464     0.39384142     0.15324017
H       -4.62904444    -1.64692720     0.39099712
H       -5.97693396    -0.75305788     1.42237742
H       -5.61482080     1.17006853    -0.05381856
C       -3.77557385     0.21356403    -0.98161344
C       -2.45352007     0.49904481    -0.90612878
H       -4.06235436    -0.45615104    -1.79330177
H       -1.57708326     0.58760877    -1.45672368
C       -2.13581751     0.89180696     0.43374023
H       -2.98751637     0.75793048     1.20460629
N       -1.16592928     1.75539705     0.74349742
H       -0.95049469     1.92103667     1.72995516
H       -0.34495403     1.49458219     0.22155685
