     6
  Step:   120            Position(A)                                  Velocity(au)
C        -0.04007612    -0.08249427    -0.03966821    -0.00001938    -0.00020941    -0.00008093
N        -0.04188792    -0.04339865     1.35335312    -0.00000158     0.00019334    -0.00007017
H         0.85434750     0.44293211    -0.56178425    -0.00018276     0.00062257     0.00070202
H         0.86422304    -0.05090311     1.84884233    -0.00017172    -0.00067945     0.00038969
H        -0.96665130     0.03160136     1.85508645     0.00033923    -0.00060005     0.00018797
H        -0.90522716     0.49269344    -0.58407692     0.00026826     0.00046565     0.00065970
