14

C       -4.54362154    -0.96230811    -0.65257828
C       -5.07087123     0.10996488    -0.01358378
H       -3.50491681    -1.23842190    -0.63897460
H       -4.97352952    -1.31850806    -1.56867764
H       -6.09494129     0.29167501    -0.20304023
C       -4.25271610     0.80646779     0.94074716
C       -2.89942878     0.93098125     0.95335421
H       -4.68943450     1.52629488     1.68435537
H       -2.46053341     1.46668205     1.78712667
C       -2.09032986     0.93229484    -0.30383195
H       -2.48948152     1.02863836    -1.33285971
N       -0.76065664     1.19017975    -0.35597128
H       -0.25899731     1.30810918    -1.21699211
H       -0.23001024     1.38081028     0.43819476
