     6
  Step:   120            Position(A)                                  Velocity(au)
C        -0.03708941     0.04398927    -0.12308585    -0.00006433    -0.00007304     0.00065679
N        -0.04281282    -0.04843417     1.42553753     0.00006826     0.00007545    -0.00053867
H         0.88408360     0.30651882    -0.70991515    -0.00026280     0.00157708     0.00030457
H         0.68690190    -0.64350646     1.88496909    -0.00152563    -0.00149982    -0.00079527
H        -0.86315041     0.29437128     2.01347676     0.00071139     0.00124141    -0.00016615
H        -0.88387162    -0.47830053    -0.63956816     0.00089503    -0.00149676     0.00031611
