12

C       -0.03410866     0.06534195    -0.22417961
N       -0.03547441     0.00501225     1.52942494
H        0.92346603    -0.16035263    -0.70802321
H        0.71571417    -0.65970622     1.79581866
H       -0.96194707    -0.36791254     1.86978925
H       -0.99074802    -0.33010229    -0.64762897
C       -0.03403037     0.06609995    -0.22390415
N       -0.03547305     0.00594633     1.52968556
H        0.92436124    -0.16186808    -0.70714742
H        0.71168819    -0.66928120     1.78929777
H       -0.95936186    -0.36943948     1.86646158
H       -0.99115414    -0.33949771    -0.64556028
