6

C       -0.05225326     0.02821222     0.02950164
N       -0.04859719    -0.05531247     1.28781132
H        0.07592884    -0.92277245    -0.48505990
H        0.15067373     0.71403031     1.93152953
H        0.09117125    -0.97279640     1.73583749
H       -0.23276377     0.94421863    -0.53771322
