6

C       -0.02602927     0.08757715     0.00410686
N       -0.04915507    -0.03490136     1.33074574
H        0.73577201    -0.57126850    -0.59224880
H        0.87086312    -0.12470450     1.83279945
H       -0.89323883    -0.41855214     1.78843091
H       -0.93309298    -0.11382402    -0.67838653
