6

C       -0.03340267     0.00699600    -0.00934653
N       -0.03829837    -0.07515178     1.31812006
H        0.91706632     0.06901276    -0.62120767
H        0.73899418    -0.00145469     1.91207026
H       -0.93598624     0.07890101     1.94494405
H       -1.00277569     0.14473758    -0.54945179
