     6
  Step:   120            Position(A)                                  Velocity(au)
C        -0.04410888     0.00677595     0.00170098     0.00001224     0.00001156     0.00038930
N        -0.05370246    -0.02526638     1.32563965    -0.00005894    -0.00004978    -0.00036264
H         0.75559420    -0.49327002    -0.62460085    -0.00082241    -0.00139994     0.00032509
H         0.75367757     0.27819734     1.92407769    -0.00062393     0.00156453    -0.00014464
H        -0.67652571    -0.74263248     1.79246702     0.00128441    -0.00087189    -0.00039558
H        -0.77383220     0.55829324    -0.64171935     0.00083514     0.00126139     0.00061552
