12

C       -0.04068327    -0.00813775    -0.08901356
N       -0.04198077    -0.07807769     1.39644503
H        0.84347212    -0.28698483    -0.73294861
H        0.68529164     0.49409964     1.91118161
H       -0.87501748    -0.36859443     1.93917671
H       -0.79852352     0.67366017    -0.57017346
C       -0.04098112    -0.00812886    -0.08514518
N       -0.04175889    -0.07815038     1.39308272
H        0.84022079    -0.29478961    -0.73133424
H        0.67902666     0.50321007     1.90856262
H       -0.87136881    -0.37550296     1.93726755
H       -0.79219002     0.68016709    -0.56663168
