     6
  Step:   120            Position(A)                                  Velocity(au)
C        -0.03866945    -0.02192245    -0.10499202     0.00002005    -0.00001616     0.00058673
N        -0.05315875    -0.11489362     1.41220694    -0.00010035     0.00003597    -0.00052221
H         0.78354642     0.65090290    -0.49042831    -0.00084457     0.00124881     0.00082427
H         0.82674036    -0.15973863     1.96512815     0.00006980    -0.00122049    -0.00008660
H        -0.65122109     0.68790161     1.75878535     0.00151487     0.00113055    -0.00069944
H        -0.97251569     0.00899067    -0.71489955     0.00041548    -0.00146610     0.00022705
