    14
  Step:   600            Position(A)                                  Velocity(au)
C        -5.47391106    -0.65626180    -0.79546780     0.00017356    -0.00027689    -0.00013818
C        -4.53574209    -0.64961381     0.13828406    -0.00010977     0.00017254     0.00064865
H        -5.75382002     0.36162897    -1.12767779    -0.00141986     0.00148138    -0.00157819
H        -6.04377902    -1.54183066    -1.17075949     0.00178722     0.00043449    -0.00292536
H        -4.45363472    -1.61059670     0.60852997     0.00033923    -0.00155286     0.00033892
C        -4.06479522     0.50070178     0.90943297     0.00017476     0.00045527    -0.00010024
C        -2.70752124     0.97152827     0.77889637    -0.00050581    -0.00087369     0.00057803
H        -4.72927493     0.73824672     1.71826538    -0.00077636     0.00315726    -0.00026003
H        -2.55867893     1.72810466     1.67835318    -0.00084013    -0.00185647     0.00294363
C        -1.84690963     0.88261263    -0.32664854    -0.00017501    -0.00033318    -0.00038157
H        -1.68882798    -0.00796652    -1.08841131     0.00001402     0.00078395    -0.00160284
N        -0.80491586     1.84652906    -0.24389114     0.00025054     0.00046776    -0.00022729
H        -0.66517341     2.30875527    -1.19675608     0.00007493     0.00018756    -0.00021653
H        -0.91142573     2.50632877     0.58689413     0.00260955     0.00106447    -0.00077041
