14

C       -5.01993476    -0.73524432     0.78319226
C       -4.58441475     0.31330948     0.22191147
H       -4.49016566    -1.67214113     0.63261967
H       -5.64086066    -0.57519735     1.65374634
H       -4.68347467     1.38934639     0.48594755
C       -3.82026801     0.36319818    -1.08247715
C       -2.51655053     0.57701706    -1.05248526
H       -4.31570776     0.98875404    -1.96178091
H       -2.02910957     0.78171834    -2.00164072
C       -2.13968070     0.74086821     0.37559958
H       -2.56674928    -0.00485471     0.99504999
N       -1.35160405     1.61081717     0.85983771
H       -0.92818911     1.78164501     1.79089548
H       -1.08432426     2.56279276     0.45844435
