6

C   -0.03689685    0.02830896    0.01390035   -0.00005524   -0.00000884    0.00037432
N   -0.04701475   -0.06507392    1.30412361    0.00020921    0.00000750   -0.00035245
H    0.89698397   -0.06136269   -0.48683714    0.00058860    0.00003337   -0.00069508
H    0.88064470   -0.04071548    1.81536436   -0.00119859   -0.00011482   -0.00039774
H   -0.91617398   -0.02700469    1.82807954   -0.00191844    0.00026205    0.00104451
H   -0.98139364    0.02626392   -0.55276365    0.00027936   -0.00017954    0.00048568
