14

C       -5.96268974    -0.61205950     0.33392421
C       -4.63822018    -0.52035941     0.24458060
H       -6.79708566     0.08123439     0.38812876
H       -6.10543061    -1.66193374     0.59077438
H       -4.24884510    -1.52064654     0.62524249
C       -3.84911594     0.43730711    -0.62231981
C       -2.75088900     1.20715855    -0.59939125
H       -4.29034801     0.40086356    -1.71156984
H       -2.37708412     1.64389523    -1.52736654
C       -1.82724908     1.26248991     0.51656991
H       -2.25522603     1.40714446     1.59834867
N       -0.51099837     1.34825985     0.41193630
H       -0.02934341     1.16280062     1.27419933
H       -0.02849622     1.24577552    -0.43876950
