     6
  Step:   300            Position(A)                                  Velocity(au)
C        -0.04426680     0.01548134     0.02239322    -0.00000320    -0.00005436     0.00018097
N        -0.03773908    -0.04486293     1.29509697     0.00000004     0.00010122    -0.00010121
H         0.86833717     0.04278182    -0.56095943    -0.00017988    -0.00110869    -0.00038927
H         0.80543054    -0.21417279     1.84822224     0.00001715     0.00082552     0.00004188
H        -0.87424861    -0.10098208     1.89904460     0.00000924    -0.00169729     0.00003352
H        -0.96053147     0.04155535    -0.55823107     0.00019109     0.00122164    -0.00043618
