12

C       -0.03632846    -0.02724319    -0.06683278
N       -0.03701746    -0.11618746     1.38048850
H        0.86601508    -0.08080032    -0.72664417
H        0.56161571     0.68985565     1.70428904
H       -0.93261167    -0.11277588     1.94485632
H       -0.76067100     0.77315481    -0.41783450
C       -0.03673501    -0.02720747    -0.06349018
N       -0.03655139    -0.11570463     1.37754156
H        0.86358298    -0.08964085    -0.72482473
H        0.55499242     0.69500776     1.70311296
H       -0.93076449    -0.12158208     1.94261166
H       -0.75509492     0.77851414    -0.41511210
