6

C       -0.03673501    -0.02720747    -0.06349018
N       -0.03655139    -0.11570463     1.37754156
H        0.86358298    -0.08964085    -0.72482473
H        0.55499242     0.69500776     1.70311296
H       -0.93076449    -0.12158208     1.94261166
H       -0.75509492     0.77851414    -0.41511210
