6

C       -0.03674969     0.01397392     0.03083701
N       -0.04235723    -0.05394936     1.28457585
H        0.05132461     0.96422833    -0.48842160
H       -0.29770559    -0.89776404     1.81564792
H        0.17006008     0.73048046     1.92105077
H       -0.11010861    -0.88353980    -0.57459882
