6

C       -0.05199649     0.02093305     0.02046829
N       -0.03848592    -0.05269705     1.29614020
H        0.16774239    -0.91278992    -0.49105217
H        0.10604367     0.75806002     1.90174422
H       -0.03094812    -0.98021068     1.72648115
H       -0.30136805     0.94801743    -0.50065036
