     6
  Step:   300            Position(A)                                  Velocity(au)
C        -0.03387232     0.02064694     0.03079832    -0.00000105    -0.00001218    -0.00006211
N        -0.03070021    -0.05741643     1.28510454     0.00001936    -0.00003999     0.00008495
H         0.09793354     0.94685756    -0.52646734    -0.00143027    -0.00006566    -0.00021226
H        -0.41067664    -0.88370919     1.77580066    -0.00158011     0.00091414     0.00004521
H         0.03480713     0.72489866     1.95336797     0.00128034    -0.00032593     0.00017367
H        -0.10476212    -0.90594303    -0.53592085     0.00147357     0.00017841    -0.00044706
