12

C       -0.03703027    -0.00331390    -0.20611506
N       -0.04528344    -0.11878836     1.49882224
H        0.94579708    -0.00722355    -0.69684558
H        0.79428984     0.44232369     1.87080458
H       -0.94068781     0.07632734     1.98885935
H       -0.94182001     0.50900672    -0.64284874
C       -0.03704889    -0.00360680    -0.20535022
N       -0.04521819    -0.12011156     1.49832971
H        0.94520165    -0.01172499    -0.69554219
H        0.78898941     0.45797849     1.86566610
H       -0.93799290     0.07700329     1.98615328
H       -0.93930402     0.51905525    -0.63857692
