12

C       -0.04008723    -0.03317241    -0.01547596
N       -0.04189166    -0.08514535     1.33500910
H        0.83512089    -0.11891856    -0.72930834
H        0.65125415     0.55939102     1.82246074
H       -0.88360955    -0.25187986     1.92468235
H       -0.75587249     0.72013751    -0.49314597
C       -0.04063709    -0.03318339    -0.01255494
N       -0.04137314    -0.08481246     1.33236978
H        0.83309065    -0.12596035    -0.72636890
H        0.64625392     0.56470873     1.82110539
H       -0.88242513    -0.25971396     1.92225084
H       -0.75067991     0.72520048    -0.49042864
