6

C       -0.04229685     0.01142196     0.01226728
N       -0.04302864    -0.05491808     1.30333553
H        0.91928446     0.22407914    -0.45175709
H        0.85517057    -0.24074300     1.75885610
H       -0.90030277     0.11714323     1.84010751
H       -0.98514789    -0.14319574    -0.51294975
