     6
  Step:   120            Position(A)                                  Velocity(au)
C        -0.03610528    -0.02534884    -0.20759457    -0.00000353    -0.00000410     0.00001288
N        -0.05025094    -0.14127030     1.50331972    -0.00001506     0.00003051    -0.00000338
H         0.95918030     0.28185140    -0.60647482     0.00085640    -0.00082499    -0.00036376
H         0.79866578     0.41763249     1.70335511    -0.00039123     0.00072998    -0.00082387
H        -0.92787023     0.35238153     1.87516284    -0.00025978    -0.00102359     0.00021669
H        -0.91437077     0.54356514    -0.49693279     0.00004594     0.00074356     0.00086445
