     6
  Step:   300            Position(A)                                  Velocity(au)
C        -0.01454006     0.00837626     0.02260816    -0.00010632    -0.00012250     0.00013105
N        -0.06883111    -0.05329216     1.29469156     0.00031237     0.00001092    -0.00018552
H         0.21771900    -0.88348059    -0.57005886    -0.00084190     0.00011467    -0.00069953
H         0.04423925     0.81397833     1.83860556    -0.00265410     0.00025658     0.00034321
H        -0.12873951    -0.95408680     1.77171333    -0.00057195     0.00051749     0.00056338
H        -0.21641860     0.99455617    -0.40910949     0.00099400     0.00041922     0.00080929
