     6
  Step:   300            Position(A)                                  Velocity(au)
C        -0.04160994     0.00946764     0.01249583     0.00002337    -0.00000878    -0.00006038
N        -0.04022404    -0.05153181     1.30135362    -0.00003835    -0.00000403     0.00005401
H         0.01051560     0.98829952    -0.46442175     0.00018676    -0.00009339    -0.00011173
H        -0.24456984    -0.91116984     1.81700066     0.00044381     0.00006184     0.00027743
H         0.17226809     0.76721215     1.87821948    -0.00010435     0.00001788     0.00014605
H        -0.09636743    -0.91082135    -0.57171501    -0.00027175     0.00017437    -0.00034277
