     6
  Step:   300            Position(A)                                  Velocity(au)
C        -0.03618317     0.00751787     0.01770505     0.00000140     0.00000186     0.00016235
N        -0.04483334    -0.05190802     1.29799360    -0.00000047    -0.00001470    -0.00011301
H         0.89592514     0.01608570    -0.53838480    -0.00030407    -0.00101467    -0.00037940
H         0.80150685    -0.09680676     1.87123129    -0.00004825     0.00120625     0.00020705
H        -0.89753341    -0.01319530     1.86346788     0.00005520    -0.00102812    -0.00001414
H        -0.95867100     0.05590622    -0.55259922     0.00028695     0.00101856    -0.00017762
