14

C       -5.12595464    -1.12489319     0.87053380
C       -4.99688669    -0.20959636    -0.10197911
H       -4.25049079    -1.27207225     1.48785941
H       -6.03215611    -1.69251627     0.92432149
H       -5.96853155     0.08580976    -0.43650917
C       -3.97958793     0.78454846    -0.73983339
C       -2.55051152     0.59996168    -0.65788105
H       -4.32018701     1.79913064    -0.99672658
H       -2.12495152    -0.34959846    -0.36538855
C       -1.74147794     1.62795385    -0.24265174
H       -1.53888379     2.73936851    -0.49770556
N       -1.06773822     1.36628974     0.91965279
H       -0.29674585     1.95102043     1.30447833
H       -1.41508537     0.39848992     1.20198920
