    14
  Step:   600            Position(A)                                  Velocity(au)
C        -5.03311093    -0.43455794    -0.91020555    -0.00017058     0.00047489     0.00077484
C        -4.47017393    -0.54680263     0.28717848     0.00061129    -0.00004778    -0.00055060
H        -5.49270759     0.56392625    -1.13233139    -0.00025388    -0.00192769     0.00241864
H        -5.05143303    -1.34290783    -1.63861570    -0.00093373     0.00320991    -0.00021330
H        -4.48571654    -1.64782062     0.77329933     0.00248342    -0.00002953    -0.00020164
C        -4.26155979     0.73282993     0.89405948     0.00012488    -0.00045447    -0.00011922
C        -3.21017585     1.56854373     0.46538224    -0.00041664     0.00016108    -0.00086753
H        -4.97564670     1.02041268     1.63686962     0.00111154     0.00111935    -0.00067413
H        -3.16611049     2.55603242     0.80109951    -0.00240459     0.00038050    -0.00070620
C        -1.99797221     0.88601385    -0.22873090     0.00055850     0.00003790     0.00015002
H        -2.27179977    -0.04721162    -0.80425419    -0.00171148    -0.00103724     0.00105458
N        -0.60878037     0.94660876    -0.03719770    -0.00053628    -0.00023039     0.00040326
H         0.05283496     0.40736122    -0.66349268     0.00017610     0.00006418    -0.00124486
H        -0.04004427     1.68861895     0.50885378     0.00055494    -0.00062311     0.00126158
