12

C       -0.03212137    -0.01185147    -0.03062568
N       -0.04695559    -0.06634086     1.34640168
H        0.71727671     0.66077549    -0.53951897
H        0.69769815    -0.56414311     1.90098423
H       -0.69749134     0.54184417     1.89310670
H       -0.89513979    -0.24512717    -0.70765309
C       -0.03193367    -0.01177528    -0.02710692
N       -0.04705135    -0.06634594     1.34332549
H        0.71166200     0.66703141    -0.53678210
H        0.69203547    -0.57045143     1.89862684
H       -0.69091708     0.54900375     1.89096645
H       -0.89134259    -0.25307157    -0.70507429
