     6
  Step:   300            Position(A)                                  Velocity(au)
C        -0.03741346     0.01221877     0.03128858    -0.00000136    -0.00000601    -0.00003211
N        -0.03796619    -0.05153851     1.28347217     0.00001150    -0.00000812     0.00004784
H         0.05020031     0.96753909    -0.48981424    -0.00147799    -0.00019133    -0.00035233
H        -0.32570676    -0.89667539     1.80971154    -0.00158592     0.00066318     0.00015162
H         0.13312225     0.73599733     1.92061558     0.00143383    -0.00055120     0.00023343
H        -0.09711663    -0.90604248    -0.55687367     0.00148652     0.00026374    -0.00031498
