6

C       -0.03211659     0.03925118     0.02388817
N       -0.03980757    -0.09792252     1.29696400
H        0.85197409    -0.13830701    -0.57942703
H        0.78372955     0.19781655     1.82033356
H       -0.93291023    -0.06924009     1.80573347
H       -0.97987373     0.23299712    -0.46234070
