12

C       -0.04639560     0.04578893     0.01857940
N       -0.05061748    -0.07944668     1.31319779
H        0.82069087     0.29504859    -0.65993544
H        0.75971967    -0.40696323     1.88135051
H       -0.75386125     0.49056825     1.87432131
H       -0.78323517    -0.49001760    -0.67373285
C       -0.04673171     0.04556267     0.02021291
N       -0.05079151    -0.07905370     1.31165259
H        0.81962683     0.30167022    -0.65760611
H        0.75726164    -0.41484533     1.87894916
H       -0.74896178     0.49577272     1.87325521
H       -0.77818905    -0.49672646    -0.67058710
