6

C       -0.04673171     0.04556267     0.02021291
N       -0.05079151    -0.07905370     1.31165259
H        0.81962683     0.30167022    -0.65760611
H        0.75726164    -0.41484533     1.87894916
H       -0.74896178     0.49577272     1.87325521
H       -0.77818905    -0.49672646    -0.67058710
