14

C   -6.02821976   -0.71312135   -0.11137997    0.00008905    0.00001554   -0.00021649
C   -4.72539648   -0.75737257    0.11228889    0.00004886   -0.00007147    0.00008093
H   -6.50647739    0.21742019   -0.51923748   -0.00046378   -0.00043553    0.00058016
H   -6.63239862   -1.59543084    0.08204619    0.00090549   -0.00034707    0.00108217
H   -4.19985437   -1.61942274    0.46539390   -0.00077812   -0.00049078   -0.00007631
C   -3.85704462    0.40346162   -0.08374918   -0.00031875    0.00006710   -0.00003470
C   -2.53054962    0.46281916    0.19322188    0.00010770   -0.00005003   -0.00002237
H   -4.30763023    1.31967652   -0.45035928    0.00018361    0.00005230   -0.00026880
H   -1.99578196   -0.38105021    0.59049655    0.00018832    0.00113575    0.00036606
C   -1.83775711    1.66941200    0.08207581    0.00000482    0.00026317   -0.00000022
H   -2.41435529    2.57739348   -0.01886226    0.00006657    0.00089103    0.00082136
N   -0.54443907    1.84525634    0.16088965   -0.00009078   -0.00018830    0.00009111
H   -0.19859432    2.76916685    0.03515806    0.00110628   -0.00044168   -0.00102921
H    0.00190240    1.01782668    0.30002695    0.00086722   -0.00042020   -0.00044354
