     6
  Step:     0            Position(A)                                  Velocity(au)
C        -0.03925256    -0.00094472     0.03515805    -0.00008940     0.00009153    -0.00008825
N        -0.04689026    -0.03522481     1.28020512     0.00004831    -0.00001038     0.00010268
H         0.93344077     0.06633329    -0.54391556    -0.00020549    -0.00052128     0.00026680
H         0.81223005    -0.17232727     1.91058416    -0.00009325     0.00008013    -0.00014473
H        -0.85599411    -0.12360796     1.80427420     0.00005690    -0.00022068    -0.00036989
H        -0.98327473     0.06057704    -0.48802729     0.00063584    -0.00028464    -0.00012757
     6
  Step:     1            Position(A)                                  Velocity(au)
C        -0.03970444    -0.00044615     0.03443008    -0.00007570     0.00009084    -0.00017677
N        -0.04654441    -0.03527726     1.28098646     0.00007811    -0.00000876     0.00018214
H         0.93218119     0.06351162    -0.54251763    -0.00025225    -0.00051089     0.00024280
H         0.81141923    -0.17187895     1.90950509    -0.00020082     0.00008358    -0.00024770
H        -0.85654810    -0.12493201     1.80282762    -0.00026078    -0.00026415    -0.00015839
H        -0.98007153     0.05906209    -0.48908346     0.00053054    -0.00026934    -0.00026147
     6
  Step:     2            Position(A)                                  Velocity(au)
C        -0.04008034     0.00004866     0.03322499    -0.00006183     0.00009023    -0.00026251
N        -0.04603615    -0.03532057     1.28219688     0.00010732    -0.00000706     0.00025957
H         0.93068229     0.06074647    -0.54126049    -0.00029281    -0.00050107     0.00021522
H         0.81003396    -0.17141334     1.90787546    -0.00030213     0.00008627    -0.00034508
H        -0.85884583    -0.12649652     1.80254217    -0.00057596    -0.00030832     0.00005117
H        -0.97747313     0.05763168    -0.49088660     0.00041622    -0.00025406    -0.00040035
     6
  Step:     3            Position(A)                                  Velocity(au)
C        -0.04038020     0.00054007     0.03156080    -0.00004806     0.00008963    -0.00034449
N        -0.04537133    -0.03535437     1.28382356     0.00013498    -0.00000529     0.00033434
H         0.92898073     0.05803487    -0.54016522    -0.00032612    -0.00049153     0.00018339
H         0.80811685    -0.17093598     1.90573332    -0.00039409     0.00008764    -0.00043410
H        -0.86284343    -0.12830203     1.80338693    -0.00087799    -0.00035191     0.00025186
H        -0.97552214     0.05628518    -0.49345935     0.00029513    -0.00023885    -0.00054246
     6
  Step:     4            Position(A)                                  Velocity(au)
C        -0.04060550     0.00102813     0.02946059    -0.00003470     0.00008898    -0.00042165
N        -0.04456113    -0.03537835     1.28585042     0.00016007    -0.00000347     0.00040571
H         0.92711865     0.05537529    -0.53925647    -0.00035112    -0.00048195     0.00014671
H         0.80572753    -0.17045565     1.90313185    -0.00047334     0.00008707    -0.00051179
H        -0.86844006    -0.13034200     1.80529434    -0.00115637    -0.00039353     0.00043705
H        -0.97424807     0.05502162    -0.49681433     0.00016991    -0.00022377    -0.00068559
     6
  Step:     5            Position(A)                                  Velocity(au)
C        -0.04075938     0.00151248     0.02695293    -0.00002206     0.00008819    -0.00049285
N        -0.04362204    -0.03539224     1.28825725     0.00018161    -0.00000160     0.00047273
H         0.92514365     0.05276798    -0.53856193    -0.00036679    -0.00047197     0.00010473
H         0.80294406    -0.16998449     1.90014041    -0.00053632     0.00008392    -0.00057501
H        -0.87548052    -0.13260261     1.80816317    -0.00140129    -0.00043179     0.00060081
H        -0.97366536     0.05383974    -0.50095168     0.00004360    -0.00020887    -0.00082706
     6
  Step:     6            Position(A)                                  Velocity(au)
C        -0.04084670     0.00199230     0.02407222    -0.00001048     0.00008717    -0.00055693
N        -0.04257558    -0.03539581     1.29101884     0.00019870     0.00000032     0.00053434
H         0.92310856     0.05021520    -0.53811148    -0.00037223    -0.00046123     0.00005720
H         0.79986395    -0.16953816     1.89684520    -0.00057938     0.00007756    -0.00062064
H        -0.88376041    -0.13506273     1.81186307    -0.00160419    -0.00046534     0.00073818
H        -0.97377143     0.05273808    -0.50585666    -0.00008040    -0.00019418    -0.00096378
     6
  Step:     7            Position(A)                                  Velocity(au)
C        -0.04087409     0.00246635     0.02085885    -0.00000028     0.00008586    -0.00061273
N        -0.04144786    -0.03538878     1.29410411     0.00021056     0.00000228     0.00058934
H         0.92107058     0.04772113    -0.53793598    -0.00036680    -0.00044938     0.00000418
H         0.79660435    -0.16913577     1.89334918    -0.00059907     0.00006742    -0.00064574
H        -0.89303401    -0.13769451     1.81624058    -0.00175834    -0.00049302     0.00084551
H        -0.97454509     0.05171497    -0.51149764    -0.00019846    -0.00017978    -0.00109239
     6
  Step:     8            Position(A)                                  Velocity(au)
C        -0.04084980     0.00293294     0.01735909     0.00000825     0.00008417    -0.00065924
N        -0.04026865    -0.03537085     1.29747568     0.00021666     0.00000430     0.00063658
H         0.91908992     0.04529178    -0.53806566    -0.00035017    -0.00043617    -0.00005398
H         0.79330048    -0.16879949     1.88977041    -0.00059254     0.00005302    -0.00064795
H        -0.90302481    -0.14046425     1.82112652    -0.00185928    -0.00051388     0.00092066
H        -0.97594579     0.05076845    -0.51782493    -0.00030698    -0.00016573    -0.00120950
     6
  Step:     9            Position(A)                                  Velocity(au)
C        -0.04078357     0.00339003     0.01362438     0.00001487     0.00008207    -0.00069563
N        -0.03907027    -0.03534160     1.30108996     0.00021667     0.00000639     0.00067501
H         0.91722776     0.04293456    -0.53852831    -0.00032250    -0.00042144    -0.00011658
H         0.79010180    -0.16855391     1.88623857    -0.00055787     0.00003406    -0.00062574
H        -0.91343787    -0.14333386     1.82634396    -0.00190513    -0.00052732     0.00096308
H        -0.97791388     0.04989626    -0.52477078    -0.00040257    -0.00015212    -0.00131195
     6
  Step:    10            Position(A)                                  Velocity(au)
C        -0.04068628     0.00383536     0.00971016     0.00001943     0.00007953    -0.00072142
N        -0.03788623    -0.03530057     1.30489793     0.00021058     0.00000856     0.00070386
H         0.91554381     0.04065779    -0.53934751    -0.00028442    -0.00040513    -0.00018262
H         0.78716631    -0.16842494     1.88288990    -0.00049447     0.00001047    -0.00057877
H        -0.92397308    -0.14626248     1.83171631    -0.00189662    -0.00053308     0.00097378
H        -0.98037231     0.04909574    -0.53225079    -0.00048237    -0.00013906    -0.00139708
     6
  Step:    11            Position(A)                                  Velocity(au)
C        -0.04056944     0.00426652     0.00567414     0.00002187     0.00007657    -0.00073653
N        -0.03674959    -0.03524722     1.30884666     0.00019870     0.00001082     0.00072272
H         0.91409338     0.03846996    -0.54054083    -0.00023712    -0.00038734    -0.00025085
H         0.78465263    -0.16843855     1.87986039    -0.00040338    -0.00001758    -0.00050805
H        -0.93433897    -0.14920848     1.83707526    -0.00183697    -0.00053130     0.00095517
H        -0.98322967     0.04836384    -0.54016691    -0.00054424    -0.00012662    -0.00146300
     6
  Step:    12            Position(A)                                  Velocity(au)
C        -0.04044473     0.00468117     0.00157414     0.00002222     0.00007321    -0.00074129
N        -0.03569135    -0.03518101     1.31288138     0.00018158     0.00001316     0.00073164
H         0.91292448     0.03637913    -0.54211849    -0.00018227    -0.00036827    -0.00031985
H         0.78271042    -0.16861913     1.87727782    -0.00028739    -0.00004961    -0.00041603
H        -0.94426489    -0.15213145     1.84226745    -0.00173151    -0.00052251     0.00091076
H        -0.98638424     0.04769703    -0.54841160    -0.00058695    -0.00011491    -0.00150874
     6
  Step:    13            Position(A)                                  Velocity(au)
C        -0.04032338     0.00507716    -0.00253414     0.00002064     0.00006951    -0.00073648
N        -0.03473893    -0.03510147     1.31694797     0.00016007     0.00001557     0.00073113
H         0.91207512     0.03439211    -0.54408250    -0.00012192    -0.00034827    -0.00038818
H         0.78147042    -0.16898793     1.87525378    -0.00015091    -0.00008492    -0.00030646
H        -0.95351180    -0.15499412     1.84715998    -0.00158719    -0.00050752     0.00084487
H        -0.98972896     0.04709140    -0.55687303    -0.00061023    -0.00010401    -0.00153440
