6

C        0.12409661     0.13733166     0.11816803
N       -0.15198306    -0.08050980     1.20933604
H       -0.82763801     0.57732593    -0.38911760
H       -1.05155781    -0.23153190     1.92533225
H        0.52549680    -0.86476399     1.23072826
H        0.77404734    -0.66783356    -0.08783606
