6

C       -0.03962117     0.01608826     0.02083030
N       -0.04235568    -0.06932258     1.29523756
H        0.87867480    -0.02482889    -0.55107537
H        0.80042007     0.01496999     1.86608386
H       -0.88199947    -0.01191732     1.88977778
H       -0.94930980     0.12362248    -0.56003605
