6

C   -0.04317598    0.00748077    0.01844913    0.00006658   -0.00012566    0.00034822
N   -0.03688307   -0.05835828    1.30440959    0.00004104    0.00009031   -0.00023423
H    0.95570537    0.04402412   -0.53756209   -0.00015738    0.00042112   -0.00002167
H    0.82317647   -0.11807838    1.79221720   -0.00103207   -0.00029832   -0.00087147
H   -0.99190296    0.01048015    1.84890565    0.00004421   -0.00020680    0.00036870
H   -0.97288908    0.11562237   -0.55789524   -0.00021846    0.00032651   -0.00037003
