     6
  Step:   300            Position(A)                                  Velocity(au)
C        -0.05285068     0.01341235     0.01451398     0.00002883    -0.00008021     0.00003149
N        -0.02970578    -0.05871365     1.30125247    -0.00015144     0.00001674    -0.00004326
H         0.25465478     0.96471155    -0.41248355    -0.00011542     0.00026656     0.00063493
H         0.02290993    -0.95380619     1.79232950     0.00067866     0.00026901     0.00012520
H        -0.06989016     0.82159888     1.82300507     0.00104054     0.00012142    -0.00008405
H        -0.37803835    -0.84620900    -0.56642076     0.00015716     0.00006618    -0.00045022
