14

C       -5.14655182    -0.58877565    -0.88286351
C       -4.42183093    -0.43582367     0.16330286
H       -5.84616656     0.09978026    -1.23924049
H       -5.28711538    -1.53244800    -1.34563504
H       -3.63711008    -1.14565717     0.60788954
C       -4.16814071     0.92280525     0.72244389
C       -2.99486145     1.38897136     0.52401997
H       -4.79809468     1.31510913     1.41084683
H       -2.71224948     2.48621714     0.51857104
C       -1.99282969     0.88537904    -0.30899652
H       -2.04172892     0.29658996    -1.17914203
N       -0.86599562     0.93570337     0.19707652
H        0.10307124     0.72967634    -0.06265289
H       -0.60130177     1.50140856     0.96814367
