    14
  Step:   600            Position(A)                                  Velocity(au)
C        -5.45204532    -0.20874628     0.77795896    -0.00005798     0.00028503    -0.00023708
C        -4.65131280    -0.65032532    -0.27099289     0.00046134    -0.00016492     0.00023020
H        -5.55875625     0.87171892     0.92727312    -0.00133810    -0.00021454    -0.00079264
H        -5.98694457    -0.85059113     1.48491057    -0.00149503    -0.00056120     0.00092056
H        -4.42943389    -1.65511235    -0.72851884     0.00194845     0.00126227     0.00022679
C        -3.98742251     0.43814328    -1.04162871     0.00033026    -0.00041365     0.00003065
C        -2.93086784     0.99430462    -0.40187727    -0.00125840     0.00010475     0.00020051
H        -4.26460312     0.84054938    -2.00173843    -0.00180238     0.00374614     0.00017437
H        -2.47767548     2.00999508    -0.80229312    -0.00034482     0.00158555     0.00100949
C        -1.93303496     1.13426695     0.70328630     0.00067313    -0.00025877    -0.00058417
H        -2.32393045     1.39743190     1.84515046    -0.00027468     0.00168330    -0.00296999
N        -0.63604584     1.23812740     0.46341652     0.00003594    -0.00013649     0.00042650
H         0.09796534     1.42597655     1.13275303     0.00118784    -0.00020847     0.00048161
H        -0.32539695     1.04621440    -0.50443221    -0.00014841    -0.00006332    -0.00068857
