6

C       -0.03423249     0.01490745     0.02046528
N       -0.04713358    -0.05530707     1.29389384
H        0.15712129    -0.91193297    -0.53624361
H       -0.00548950     0.79280497     1.86478814
H       -0.08303131    -0.96195579     1.76428230
H       -0.21863638     1.00224446    -0.42507263
