     6
  Step:   120            Position(A)                                  Velocity(au)
C        -0.03221799    -0.09437733    -0.03042285     0.00005887    -0.00018010    -0.00016318
N        -0.03920291    -0.00237120     1.34936798    -0.00004199     0.00013233     0.00001593
H         0.80863112     0.54036930    -0.56327095    -0.00067736     0.00092509     0.00083980
H         0.81906232    -0.36466611     1.83603874    -0.00005765    -0.00099271     0.00042320
H        -0.96948346    -0.02180810     1.85158511     0.00063370     0.00029380    -0.00016983
H        -0.94245332     0.33388259    -0.62107823    -0.00001666     0.00008106     0.00062995
