6

C       -0.05255961    -0.00087724     0.03069830
N       -0.05468951    -0.04425897     1.28480412
H        0.02363691     0.98778550    -0.40589075
H       -0.03328849    -0.89276349     1.86552408
H        0.35727173     0.72686868     1.82874511
H       -0.17426846    -0.86620323    -0.61619527
