     6
  Step:   120            Position(A)                                  Velocity(au)
C        -0.06243455     0.11341484    -0.01749264    -0.00008672    -0.00000302    -0.00000647
N        -0.04668310    -0.09409217     1.33507147    -0.00001327    -0.00000980    -0.00009469
H         0.92148659     0.01500285    -0.61378430     0.00015389     0.00110265     0.00051730
H         0.78191768    -0.47495395     1.82988538    -0.00073241    -0.00098523    -0.00003784
H        -0.79411121     0.39192024     1.89096276     0.00101524     0.00109040     0.00041361
H        -0.72954923    -0.64568094    -0.55919045     0.00078102    -0.00103559     0.00049983
