6

C       -0.04447362     0.05347346     0.00519245
N       -0.05297131    -0.08806374     1.32892085
H        0.86973828     0.28822589    -0.63937801
H        0.80543880    -0.39619535     1.83346797
H       -0.79271602     0.44865659     1.85589958
H       -0.82933179    -0.42390314    -0.68699100
