14

C       -5.23964372    -0.90581750     0.84098342
C       -4.81762269     0.10936996     0.05115881
H       -5.46420130    -1.93291566     0.84496652
H       -5.68871853    -0.56339475     1.77831399
H       -5.03761749     1.22371865     0.42916879
C       -3.92638290     0.38005472    -1.10026816
C       -2.55401943     0.85244447    -0.91768765
H       -4.35604703     0.22822593    -2.09906910
H       -2.13839129     1.09070477    -1.82807122
C       -1.85350094     0.78352884     0.39834093
H       -2.40970464     0.08067829     1.26905508
N       -1.04085389     1.72457473     0.79292005
H       -1.02170959     1.81587294     1.79903384
H       -0.24277348     2.19954212     0.47037532
