     6
  Step:   120            Position(A)                                  Velocity(au)
C        -0.03829678     0.06523396    -0.11231521     0.00003550    -0.00007354     0.00054509
N        -0.04915853     0.00615524     1.43302113    -0.00005240    -0.00000692    -0.00047109
H         0.70672988    -0.67670695    -0.48311171    -0.00091852    -0.00116627     0.00042237
H         0.86110050    -0.18052914     1.93796273    -0.00023149     0.00162458    -0.00003236
H        -0.67683723    -0.82680269     1.58978807     0.00114900    -0.00116208    -0.00056485
H        -0.96446603     0.15140982    -0.72799426     0.00030605     0.00167626     0.00022597
