14

C       -5.55485931    -0.56221005     0.81369937
C       -4.73117794     0.18731856     0.02558508
H       -5.86496623    -1.57267382     0.58778734
H       -5.97783878    -0.08028421     1.71344921
H       -4.63158125     1.15964400     0.52629586
C       -3.61077238    -0.05402999    -1.04046237
C       -2.22639213     0.25583361    -0.86283392
H       -4.03241910    -0.35154791    -1.99303613
H       -1.47542722    -0.19070653    -1.41135301
C       -2.00927868     0.97785280     0.39933592
H       -2.86334754     0.90764004     1.07187287
N       -1.25077939     2.03783757     0.73865256
H       -1.45539562     2.55830004     1.63177261
H       -0.22328091     2.30268079     0.54297652
