6

C       -0.03494695    -0.01895893    -0.16210628
N       -0.04057538    -0.12952041     1.46367203
H        0.91389234    -0.00432640    -0.73333892
H        0.65858006     0.60125263     1.76512912
H       -0.94674225     0.08651551     1.95119992
H       -0.85837678     0.67256136    -0.49896103
