6

C       -0.03376110     0.01664256    -0.01472833
N       -0.04781726    -0.04973361     1.32320832
H        0.94967142    -0.01510275    -0.52470176
H        0.85020957    -0.13000211     1.83646096
H       -0.94045963    -0.09061585     1.91085625
H       -1.00557453     0.05874483    -0.54283625
