     6
  Step:   120            Position(A)                                  Velocity(au)
C        -0.04519538     0.07280743    -0.01885223    -0.00008406     0.00007861    -0.00009742
N        -0.05799929    -0.10084564     1.34600907    -0.00001867     0.00003732    -0.00004866
H         0.90553099     0.16520077    -0.64295725     0.00006370     0.00087556     0.00061676
H         0.82663756    -0.35495104     1.83140751    -0.00060143    -0.00148045     0.00010759
H        -0.74817555     0.50363926     1.87534192     0.00098204     0.00079365     0.00043970
H        -0.85242336    -0.44985889    -0.65171979     0.00081688    -0.00164413     0.00067295
