     6
  Step:   120            Position(A)                                  Velocity(au)
C        -0.05246671    -0.05206868     0.00626474    -0.00018034    -0.00004661    -0.00025462
N        -0.03577761    -0.07009546     1.31727868     0.00010629     0.00010969     0.00016686
H         0.85583818     0.03648788    -0.67474722     0.00069933    -0.00133803     0.00039884
H         0.72121658     0.42934926     1.83263640    -0.00057150     0.00082171     0.00015862
H        -0.91387690    -0.25617705     1.85811733     0.00013158    -0.00178960    -0.00022954
H        -0.75374549     0.71507943    -0.50397698     0.00041248     0.00133709     0.00038746
