     6
  Step:   300            Position(A)                                  Velocity(au)
C        -0.03574252     0.01914566     0.01977470    -0.00003086    -0.00001402    -0.00013559
N        -0.04258082    -0.06464248     1.29853116     0.00000942     0.00003057     0.00006912
H         0.87271925    -0.18848265    -0.53088733     0.00034248    -0.00026856     0.00071738
H         0.81872972     0.09146945     1.82765231     0.00029301     0.00010856    -0.00025909
H        -0.92635214    -0.17415631     1.80378825    -0.00021070    -0.00041701    -0.00040107
H        -0.96039122     0.27154539    -0.48899354    -0.00018794     0.00031918     0.00059788
