6

C       -0.03242943     0.03128080     0.02187860
N       -0.04144289    -0.08133989     1.29707360
H        0.84224404    -0.18246377    -0.58819925
H        0.80345562     0.09273561     1.84309696
H       -0.92563183    -0.09809423     1.81905506
H       -0.97066162     0.27563564    -0.46719843
