14

C       -5.39033331    -1.19156088    -0.42491737
C       -5.03747936     0.06734305    -0.20242923
H       -4.96597311    -2.00397075     0.05960212
H       -6.16854699    -1.52069641    -1.07642309
H       -5.49605240     0.80985903    -0.92015352
C       -4.01284497     0.44237330     0.81742266
C       -2.89886882     1.14170819     0.48863386
H       -4.38796213     0.38091442     1.83015265
H       -2.40369054     1.43832363     1.45998753
C       -1.72904884     1.21283394    -0.38418103
H       -1.81468055     0.98863397    -1.46481039
N       -0.53889738     1.40766445     0.07504640
H        0.33525748     1.17013032    -0.38689676
H       -0.35991705     1.88342353     0.95961464
