     6
  Step:   120            Position(A)                                  Velocity(au)
C        -0.03288068     0.05536852    -0.23521003     0.00005274     0.00025899    -0.00003500
N        -0.05111601    -0.01512496     1.53234205     0.00000648     0.00026149     0.00008220
H         0.93622760    -0.25545185    -0.67330858    -0.00028960    -0.00214388     0.00054617
H         0.87720168    -0.36364131     1.89952922    -0.00048939    -0.00101314    -0.00085867
H        -0.89828096    -0.44960446     1.91124964     0.00031745    -0.00247979    -0.00066796
H        -1.02594485    -0.05065845    -0.73662745    -0.00025698    -0.00108312     0.00025530
