14

C       -5.71511752    -0.65267432     0.72004578
C       -4.71313270    -0.55934422    -0.19077218
H       -5.77558106     0.34150762     1.41374257
H       -6.64869917    -1.29513976     0.61045980
H       -4.45629941    -1.23334720    -1.09251567
C       -3.65905677     0.40638632    -0.11373395
C       -2.50082304     0.61321123    -0.91682792
H       -3.76016159     1.00873000     0.83379649
H       -2.35571507    -0.09900363    -1.76964112
C       -1.30968462     1.24613112    -0.27901915
H       -0.16024516     1.14706370    -0.81588130
N       -1.45890672     1.85870088     0.89789212
H       -0.83699205     2.20381385     1.67478473
H       -2.43428331     2.18219153     0.98014987
