     6
  Step:   120            Position(A)                                  Velocity(au)
C        -0.05078293     0.08341267    -0.02245782    -0.00007373     0.00008466    -0.00001500
N        -0.04614139    -0.08477387     1.34329207    -0.00005053    -0.00001237    -0.00010855
H         0.90918531     0.14288517    -0.63675769    -0.00012019     0.00088716     0.00059071
H         0.79100023    -0.44822320     1.85464533    -0.00056675    -0.00122800     0.00018725
H        -0.84429080     0.34033595     1.89537063     0.00131801     0.00104834     0.00024304
H        -0.82251441    -0.52068309    -0.62045648     0.00094970    -0.00154446     0.00066621
