12

C       -0.03598755    -0.02352238    -0.04362696
N       -0.05419502    -0.09696179     1.35907757
H        0.73670064     0.67750709    -0.48084939
H        0.79716587    -0.29272133     1.93107623
H       -0.63898337     0.67106817     1.79925382
H       -0.92589434    -0.09790352    -0.72380998
C       -0.03560827    -0.02355233    -0.04017564
N       -0.05446651    -0.09667491     1.35610743
H        0.73130982     0.68336584    -0.47775217
H        0.79395780    -0.30046432     1.92823180
H       -0.63310956     0.67712499     1.79695623
H       -0.92391599    -0.10570571    -0.72161728
