6

C       -0.03560827    -0.02355233    -0.04017564
N       -0.05446651    -0.09667491     1.35610743
H        0.73130982     0.68336584    -0.47775217
H        0.79395780    -0.30046432     1.92823180
H       -0.63310956     0.67712499     1.79695623
H       -0.92391599    -0.10570571    -0.72161728
