     6
  Step:   120            Position(A)                                  Velocity(au)
C        -0.03429919     0.13041983    -0.02214030     0.00000295     0.00024566    -0.00009123
N        -0.05034966    -0.12642908     1.34792770    -0.00000955    -0.00008599    -0.00004429
H         0.83968799    -0.32009952    -0.63717130    -0.00015161    -0.00069685     0.00049214
H         0.86990596     0.01765953     1.85383179    -0.00033914    -0.00018095     0.00008273
H        -0.90771970     0.18242754     1.84831186     0.00024896     0.00020649     0.00019945
H        -0.90642931    -0.34696644    -0.64038440     0.00033935    -0.00106109     0.00092822
