     6
  Step:   600            Position(A)                                  Velocity(au)
C         0.01337184    -0.06513048    -0.02798025    -0.00040721    -0.00022602    -0.00139070
N         0.02551041     0.03471842     1.38054399     0.00054615    -0.00010835     0.00089335
H         0.58020915    -0.99727966    -0.67131953     0.00296576     0.00017646     0.00093752
H        -0.73067306     0.53732247     1.71855828    -0.00260301     0.00293291    -0.00009829
H        -0.96480221    -0.33791292     1.80515448    -0.00349014    -0.00098823     0.00325748
H        -0.61170616     0.42234129    -0.81092916     0.00039021     0.00207792     0.00006065
