12

C       -0.02917537     0.07768623    -0.00870739
N       -0.04822419    -0.04621061     1.34531676
H        0.81855150    -0.42544095    -0.65377596
H        0.87564553    -0.11628826     1.83152729
H       -0.93052997    -0.33023263     1.80947037
H       -0.95879945    -0.08137410    -0.68641757
C       -0.02874607     0.07887703    -0.01063253
N       -0.04844287    -0.04701992     1.34651867
H        0.81884239    -0.43295645    -0.65078384
H        0.87723843    -0.11029215     1.83281048
H       -0.93043378    -0.33253230     1.80940857
H       -0.96285612    -0.08049827    -0.68439313
