6

C   -0.03940626    0.01135771    0.00440998    0.00005568    0.00008772    0.00006556
N   -0.04611078   -0.05880531    1.30822748    0.00009302   -0.00003378    0.00003595
H    0.93634327    0.01203673   -0.49189683    0.00029546   -0.00048619   -0.00044942
H    0.88713517   -0.06645894    1.86585188   -0.00095274    0.00019632   -0.00108057
H   -0.91878642   -0.02333826    1.85846515   -0.00088801   -0.00005881    0.00045489
H   -1.00729057    0.08982283   -0.57251799   -0.00041091   -0.00022711   -0.00020566
