6

C   -0.03526404    0.02127291    0.04089543    0.00006298   -0.00004334   -0.00024061
N   -0.04477587   -0.05932581    1.28167686    0.00006239   -0.00004569    0.00012254
H    0.88834097   -0.04210842   -0.53065079   -0.00034683    0.00045764    0.00029816
H    0.85098213   -0.10013895    1.87496596   -0.00037547    0.00013163   -0.00038989
H   -0.90927389   -0.01910413    1.78765684   -0.00099475    0.00042853    0.00097396
H   -1.00055735    0.06249663   -0.53787541    0.00009961    0.00013355    0.00028207
