12

C       -0.03485216    -0.01891457    -0.16503933
N       -0.04084558    -0.12945427     1.46589324
H        0.91496699     0.00464636    -0.73286583
H        0.66548441     0.59132996     1.77154653
H       -0.94738170     0.09486118     1.95327069
H       -0.86309100     0.66371803    -0.50383856
C       -0.03492268    -0.01892179    -0.16298566
N       -0.04065091    -0.12974670     1.46447784
H        0.91421079    -0.00237383    -0.73308936
H        0.65966486     0.60056865     1.76557777
H       -0.94623638     0.08929747     1.95072142
H       -0.85952545     0.67121300    -0.49989974
