12

C       -0.01288279     0.10653322    -0.02187889
N       -0.04281013    -0.08713363     1.34220986
H        0.67770963    -0.62968367    -0.57585105
H        0.78736979     0.20119591     1.88258593
H       -0.94312290    -0.33338373     1.83188567
H       -0.98647863     0.03348891    -0.63771279
C       -0.01238914     0.10699696    -0.02186114
N       -0.04276863    -0.08749951     1.34144320
H        0.67188523    -0.63627067    -0.57208742
H        0.78330140     0.20851798     1.88564971
H       -0.93999642    -0.33834232     1.83238009
H       -0.98617143     0.03727083    -0.63459230
