    14
  Step:   600            Position(A)                                  Velocity(au)
C        -6.08390379    -0.81000777     0.13874199    -0.00004808    -0.00011646    -0.00016026
C        -4.70793645    -0.57912220     0.20644717     0.00013785    -0.00029346     0.00075754
H        -6.73144372    -0.29601544    -0.59782437     0.00077280     0.00029486    -0.00103932
H        -6.57377216    -1.60801124     0.79175325    -0.00099474     0.00131423    -0.00118162
H        -4.03028474    -1.14985542     0.94005105    -0.00005625     0.00121938     0.00217361
C        -3.81514766     0.38922096    -0.51396494    -0.00004360    -0.00031843    -0.00045754
C        -2.54399263     0.44452274    -0.07895924    -0.00020516     0.00054276    -0.00007951
H        -4.23856426     1.26249046    -0.92413784     0.00143168     0.00075939    -0.00151953
H        -2.10841242    -0.51462961     0.56414975     0.00014801     0.00135107    -0.00144985
C        -1.87153749     1.61664048     0.08843674     0.00043379    -0.00002034     0.00030622
H        -2.42061704     2.67634201     0.09384803     0.00333320    -0.00171936     0.00308237
N        -0.51777745     1.83919454     0.36166736    -0.00064439     0.00003230    -0.00061633
H        -0.31013173     2.78270639     0.80849017     0.00203041    -0.00202253     0.00340092
H         0.30701511     1.28367831     0.20939254    -0.00098514     0.00080799     0.00073148
