     6
  Step:   300            Position(A)                                  Velocity(au)
C        -0.05243939     0.03099958     0.02805316     0.00008244     0.00006598    -0.00002227
N        -0.04945110    -0.05765975     1.29024003    -0.00023732    -0.00003024     0.00001232
H         0.09225623    -0.91635056    -0.49412971    -0.00134732    -0.00016590    -0.00008735
H         0.17326413     0.70818964     1.92619634    -0.00005563    -0.00038361     0.00041476
H         0.06662544    -0.97878965     1.73599211     0.00259396     0.00032380     0.00034945
H        -0.23302173     0.94904048    -0.53993441     0.00112453    -0.00014027    -0.00058267
