6

C       -0.03105370     0.06227108    -0.00448571
N       -0.03699245    -0.09958367     1.34265435
H        0.81537810    -0.33628782    -0.69857163
H        0.77553574     0.32147748     1.85139438
H       -0.96207422    -0.20471342     1.81675351
H       -0.95767710     0.19158101    -0.68208476
