6

C       -0.03369869     0.01348962     0.02825506
N       -0.04764037    -0.05386889     1.29084985
H        0.27095829     0.93688391    -0.46669432
H       -0.03171374    -0.95376173     1.78048722
H       -0.06931436     0.78217211     1.88210339
H       -0.31928837    -0.84726845    -0.57862500
