    14
  Step:   600            Position(A)                                  Velocity(au)
C        -5.86428615    -0.93144195     0.05496259     0.00014482     0.00013251    -0.00041165
C        -4.61792803    -0.58922898     0.33294696    -0.00010036     0.00019478     0.00035919
H        -6.39014687    -0.86675173    -0.88091626     0.00148730    -0.00146663     0.00060330
H        -6.36553901    -1.59845690     0.76615891    -0.00063297    -0.00024510    -0.00038690
H        -4.09097910    -0.95626338     1.23117356     0.00135235     0.00040553     0.00085777
C        -4.00210016     0.60737195    -0.20657648     0.00050195    -0.00046255    -0.00051686
C        -2.67564405     0.63913109    -0.20471882    -0.00023694     0.00034596     0.00045661
H        -4.47389282     1.57416394    -0.52902374    -0.00174272    -0.00048022     0.00021390
H        -2.00906038    -0.13912350     0.18534349    -0.00261538     0.00185220     0.00166510
C        -1.82731873     1.78380731     0.10394286     0.00094782     0.00049372     0.00085270
H        -2.24692638     2.75534716     0.30774515    -0.00031737    -0.00188133     0.00078808
N        -0.56569100     1.52167360     0.17808967    -0.00098119    -0.00035308    -0.00090875
H        -0.02900942     2.09746394     0.90992805    -0.00058157    -0.00023327     0.00041163
H        -0.25281287     0.64067520    -0.41172979     0.00170354    -0.00143852    -0.00034232
