6

C       -0.03964468     0.01698453    -0.00968998
N       -0.04338003    -0.04852589     1.32389324
H        0.95355118    -0.01490896    -0.57436813
H        0.82683911    -0.14317952     1.89758990
H       -0.90941430    -0.07579648     1.82676331
H       -1.00867576     0.03605709    -0.53975958
