6

C       -0.03451625    -0.01756639     0.02196274
N       -0.03549668    -0.00377115     1.30191103
H        0.85559209     0.13904477    -0.59064144
H        0.76126508    -0.40079139     1.79962012
H       -0.92518019    -0.07392730     1.80778394
H       -1.00005562    -0.07238358    -0.47824662
