     6
  Step:   120            Position(A)                                  Velocity(au)
C        -0.03920804     0.02392449     0.02142611    -0.00003651     0.00002409    -0.00014265
N        -0.03899506    -0.04340911     1.31228708     0.00002166    -0.00003504     0.00006362
H         0.79240649     0.37990257    -0.65580334    -0.00010668     0.00157602     0.00066359
H         0.65997431    -0.64871849     1.82655178    -0.00075577    -0.00127190    -0.00021469
H        -0.82707016     0.32591543     1.89202397     0.00066417     0.00155380    -0.00015569
H        -0.82916554    -0.40873484    -0.66205060     0.00033231    -0.00165812     0.00052252
