    14
  Step:   600            Position(A)                                  Velocity(au)
C        -4.89873399    -1.16786962    -0.18406498    -0.00018601    -0.00003179    -0.00059983
C        -4.98702928     0.11465343     0.12653554     0.00035168    -0.00033948     0.00065817
H        -4.12588039    -1.56345195    -0.88952138    -0.00182046     0.00214642    -0.00189886
H        -5.78409888    -1.82256618    -0.03068365    -0.00047436    -0.00039077    -0.00068271
H        -5.97338894     0.49800021     0.51605688     0.00174598     0.00138484    -0.00081892
C        -3.84633988     0.99390775     0.05883029     0.00057496     0.00021490     0.00006448
C        -2.74503194     0.21643783     0.13377828    -0.00066462    -0.00103301     0.00036925
H        -3.85259479     1.98088510    -0.39485073     0.00185478     0.00068303     0.00116921
H        -2.90270039    -0.81851469     0.43155286     0.00035764     0.00012519     0.00026236
C        -1.54796811     0.83170682     0.40278800    -0.00025524     0.00012188     0.00050970
H        -0.91429927     0.37606265     1.05672340    -0.00217336     0.00290152     0.00031464
N        -1.36819599     1.97702885    -0.11394042     0.00022581     0.00022958    -0.00056274
H        -0.52026735     2.39518763     0.24018298    -0.00217470     0.00284355    -0.00118166
H        -2.09943326     2.33885859    -0.74185719     0.00168232    -0.00016371    -0.00128116
