     6
  Step:   120            Position(A)                                  Velocity(au)
C        -0.03976645     0.00038261     0.00961626    -0.00003844    -0.00005675    -0.00032787
N        -0.04495956    -0.05291059     1.33224224    -0.00001584     0.00001589     0.00033790
H         0.85320564     0.02946193    -0.69660266     0.00123949    -0.00006913    -0.00020119
H         0.87465058    -0.07908051     1.83897611     0.00049713     0.00019270    -0.00003322
H        -0.93813995    -0.07699949     1.83391377    -0.00009591    -0.00026318    -0.00053329
H        -0.90403449     0.18755023    -0.71213440    -0.00096260     0.00059500    -0.00002096
