     6
  Step:   120            Position(A)                                  Velocity(au)
C        -0.02217830     0.11420010    -0.02846518     0.00005856     0.00016917     0.00004227
N        -0.04428452    -0.07528039     1.34788000    -0.00001548    -0.00014816    -0.00015256
H         0.75163107    -0.56157067    -0.57432856    -0.00075556    -0.00115653     0.00086935
H         0.83705054     0.00590832     1.87477134    -0.00022614     0.00131500     0.00042113
H        -0.95020955    -0.25881671     1.83067324     0.00056352    -0.00028283     0.00002656
H        -0.97173900    -0.16999683    -0.63050127    -0.00006456     0.00016741     0.00029930
