12

C       -0.04671008    -0.04470015    -0.03553766
N       -0.04315071    -0.04442426     1.35845969
H        0.91491843     0.09152725    -0.64774607
H        0.86636569     0.07227402     1.85433997
H       -0.94935397    -0.20335132     1.84236368
H       -0.88863827     0.51976157    -0.61109566
C       -0.04718609    -0.04579781    -0.03586403
N       -0.04326754    -0.04383458     1.35809775
H        0.91607536     0.09049971    -0.64517666
H        0.86538703     0.07622211     1.85611019
H       -0.94564196    -0.20968172     1.84276383
H       -0.88523277     0.52805684    -0.60691668
