6

C       -0.03696818    -0.03384806     0.00436616
N       -0.03737383    -0.00742173     1.33991576
H        0.85146956     0.22149287    -0.69677883
H        0.79535811    -0.42740913     1.79575084
H       -0.95806694    -0.08983679     1.79834240
H       -0.94181856     0.13244894    -0.67723590
