6

C       -0.03565779     0.00736398     0.02803070
N       -0.03944826    -0.05102532     1.28688420
H        0.06047215    -0.89078684    -0.58775547
H       -0.20190677     0.77876762     1.88442406
H        0.00937805    -0.92011083     1.82973250
H       -0.10779538     0.98367611    -0.45138080
