6

C        0.00196748     0.15180079     0.11345868
N       -0.05100575    -0.18261603     1.22688438
H       -0.53621023    -0.49398957    -0.69007980
H        0.47677211     0.19122534     1.98008906
H       -0.91216680    -0.81265253     1.28638517
H        0.44444895     1.17384842    -0.08511917
