6

C       -0.03962631    -0.02767672    -0.03521801
N       -0.05318208    -0.10797320     1.35226279
H        0.72760865     0.71953001    -0.42143297
H        0.82038753    -0.20803461     1.92161125
H       -0.63578472     0.68470638     1.75127836
H       -0.91390577    -0.03574560    -0.73128447
