6

C       -0.02542629     0.01264805     0.02790751
N       -0.06357736    -0.05074007     1.29355931
H        0.20514956    -0.87288527    -0.56755745
H        0.09016351     0.77190457     1.88125590
H       -0.06599461    -0.94310051     1.78890614
H       -0.25579596     0.92870535    -0.51885887
