     6
  Step:   300            Position(A)                                  Velocity(au)
C        -0.02868684     0.01826826     0.02483391     0.00000137    -0.00004621    -0.00013077
N        -0.02661368    -0.05101940     1.29181067     0.00002771    -0.00006539     0.00013939
H         0.08919942     0.93211800    -0.55804528    -0.00149330     0.00009647     0.00000306
H        -0.40194407    -0.89648975     1.75860641    -0.00176724     0.00086042     0.00000585
H        -0.14271724     0.72017601     1.95080004     0.00130993     0.00020278     0.00017109
H        -0.04580904    -0.93426511    -0.50669536     0.00154925     0.00029965    -0.00055877
