14

C       -5.50993370    -0.74683169     0.78794124
C       -4.85596022     0.19264163    -0.00270520
H       -5.82799152    -1.79995140     0.79700748
H       -5.93323020    -0.21060838     1.66084258
H       -4.82619054     1.25524718     0.28931172
C       -3.70140294     0.18690612    -1.00658429
C       -2.32894632     0.33449781    -0.79116300
H       -3.96810280    -0.14568070    -2.09117971
H       -1.46058626     0.22873617    -1.56114322
C       -1.85675331     0.86175640     0.46832703
H       -2.33789446     0.41625444     1.36620309
N       -1.16762508     2.02380710     0.66448138
H       -1.23530943     2.13812364     1.67591068
H       -0.65457375     2.75755720     0.12783081
