6

C       -0.03458803    -0.01369798     0.02196778
N       -0.03488414    -0.00993143     1.30141492
H        0.86327053     0.11359900    -0.58714893
H        0.74564968    -0.43345316     1.80231305
H       -0.92430847    -0.02173187     1.81153208
H       -1.00065735    -0.02695880    -0.48134048
