6

C       -0.06005843     0.01396531     0.01547856
N       -0.01333913    -0.05608017     1.30215223
H        0.25128266     0.95963392    -0.43670317
H       -0.06869260    -0.96721063     1.75715566
H       -0.10987259     0.81462736     1.83616706
H       -0.38462308    -0.86393454    -0.54417903
