     6
  Step:   300            Position(A)                                  Velocity(au)
C        -0.00292486     0.02421110     0.01894485     0.00001540    -0.00001468    -0.00010025
N        -0.10009646    -0.05650110     1.30258716    -0.00000905    -0.00000566     0.00010325
H         0.17814723    -0.90044004    -0.53616375     0.00124241     0.00023235     0.00016134
H         0.15301240     0.74393991     1.89031820     0.00122192     0.00032191    -0.00091383
H         0.03209042    -0.96176214     1.76283210    -0.00138709    -0.00039187    -0.00004578
H        -0.15036195     0.94512999    -0.55190200    -0.00113501     0.00009121     0.00055809
