14

C       -4.58348949    -0.80617028    -0.92829281
C       -4.55791272     0.34834616    -0.20111405
H       -4.18232353    -1.70832215    -0.41775974
H       -5.00206610    -0.99991668    -1.91755476
H       -4.89799357     1.29035313    -0.52795227
C       -3.90494210     0.16549671     1.18350952
C       -2.51375232     0.34508004     1.18117431
H       -4.52942679     0.16728273     2.07293182
H       -1.80709359    -0.17791247     1.90017654
C       -1.85657516     0.80308697    -0.07805551
H       -1.36723489     0.25006789    -0.83091691
N       -1.90124369     2.04990883    -0.53699458
H       -1.77546401     2.33997679    -1.47753682
H       -2.45302371     2.79472094    -0.11552366
