6

C       -0.04171225     0.00864652    -0.02529867
N       -0.03673235    -0.08625626     1.34977036
H        0.83290939    -0.28740269    -0.67285977
H        0.74288524     0.42542263     1.87290172
H       -0.92478997    -0.26627990     1.85525028
H       -0.85644370     0.55408581    -0.61864968
