     6
  Step:   120            Position(A)                                  Velocity(au)
C        -0.03964812    -0.02381287    -0.07995638     0.00005854     0.00000329     0.00061294
N        -0.05599191    -0.11947997     1.39251423    -0.00008903     0.00008679    -0.00053881
H         0.74126229     0.71881939    -0.40795770    -0.00092763     0.00112495     0.00052219
H         0.84087417    -0.16011883     1.93307829    -0.00011930    -0.00159908    -0.00015092
H        -0.59805859     0.73837815     1.70488067     0.00131772     0.00086207    -0.00042888
H        -0.94648348    -0.02275762    -0.73606508     0.00026877    -0.00163316     0.00024123
