6

C       -0.09965349    -0.03192780     0.10861966
N       -0.05034879     0.02784902     1.25150308
H       -0.76603178    -0.98781956    -0.46843689
H        0.01922343     0.96517643     1.74445318
H        0.54989361    -0.82961499     1.48595459
H        0.87130012     0.17608292    -0.55533713
