     6
  Step:   120            Position(A)                                  Velocity(au)
C        -0.03641735     0.05279179    -0.09972229    -0.00000229     0.00020497    -0.00014119
N        -0.04136123    -0.00910845     1.40667405     0.00004802     0.00016499     0.00011145
H         0.97235646    -0.22809014    -0.54080927    -0.00051695    -0.00120395     0.00104381
H         0.81604636    -0.43089396     1.82974675    -0.00087004    -0.00101330    -0.00121578
H        -0.93606494    -0.34593224     1.81656940     0.00016314    -0.00122713    -0.00088037
H        -1.05653804    -0.16736137    -0.57279942     0.00058380    -0.00129084     0.00118600
