12

C       -0.04501007     0.06802947    -0.13384540
N       -0.04029128     0.01088889     1.45021978
H        0.77187410    -0.63834171    -0.44964252
H        0.87838548    -0.30061108     1.89506134
H       -0.77482710    -0.72450461     1.61909462
H       -0.99212727     0.03172098    -0.73032633
C       -0.04504332     0.06759986    -0.13138910
N       -0.04062996     0.01064286     1.44788922
H        0.76630769    -0.64405704    -0.44470292
H        0.88037094    -0.29166925     1.89821061
H       -0.76740992    -0.72909020     1.61485211
H       -0.99086098     0.04161839    -0.73105585
