14

C   -6.04961474   -0.63069369   -0.08567244   -0.00033904   -0.00003173    0.00007785
C   -4.70334178   -0.79699951    0.12043426    0.00015257   -0.00000731   -0.00001616
H   -6.40434816    0.36656725   -0.26348967    0.00092050    0.00005474   -0.00081159
H   -6.65187109   -1.51901633   -0.26879618   -0.00087331   -0.00051232   -0.00077208
H   -4.30007996   -1.83331178    0.31744765   -0.00001442   -0.00070288    0.00018799
C   -3.86836123    0.32955679    0.02440458   -0.00008918    0.00015281    0.00000865
C   -2.48310425    0.45052673    0.12741171    0.00009707   -0.00032243   -0.00000289
H   -4.26981656    1.36183171   -0.18413867    0.00060986    0.00068479   -0.00029544
H   -1.82141085   -0.42658784    0.33632540    0.00104056   -0.00068944    0.00068195
C   -1.81850424    1.66976986   -0.07161346    0.00020225    0.00017769    0.00027189
H   -2.34996019    2.48253713   -0.68363751    0.00020182    0.00004193   -0.00012388
N   -0.59947952    1.88120636    0.24994844   -0.00005064    0.00015863   -0.00000547
H   -0.14459249    2.78982761    0.16173318   -0.00030700   -0.00092591   -0.00104750
H   -0.21403965    1.09700887    0.75503231   -0.00115637    0.00021398   -0.00178712
