6

C       -0.03786070    -0.00765474    -0.02493435
N       -0.04270338    -0.03399915     1.33738664
H        0.96326722     0.03783581    -0.55543100
H        0.79226438    -0.17118367     1.82581315
H       -0.92275025    -0.14966595     1.93650127
H       -1.00114476     0.17691128    -0.60252222
