     6
  Step:   300            Position(A)                                  Velocity(au)
C        -0.05442096     0.00051337     0.02171511     0.00005633    -0.00008023     0.00013773
N        -0.04046537    -0.05166890     1.29399052    -0.00022136     0.00004201    -0.00013958
H         0.19339833     0.97610481    -0.38914061    -0.00109901     0.00024799     0.00020123
H         0.08078371    -0.91186160     1.83380557     0.00009580     0.00044908     0.00044644
H         0.06117996     0.82489658     1.81365915     0.00237439    -0.00037460     0.00033846
H        -0.33748703    -0.84702881    -0.60678033     0.00103376     0.00004977    -0.00068774
