6

C       -0.06518964    -0.05389896    -0.02683975
N       -0.03223317    -0.06085924     1.34006006
H        0.90238773    -0.05588917    -0.64099846
H        0.72911815     0.44121285     1.87109651
H       -0.90534333    -0.34498945     1.84634050
H       -0.71438028     0.77786331    -0.48652972
