12

C       -0.06832881    -0.07352586    -0.02514129
N       -0.04464843    -0.02089790     1.33906571
H        0.91801723    -0.02202809    -0.62160203
H        0.82354908     0.24046187     1.88095989
H       -0.83122105    -0.48944643     1.82990938
H       -0.68861290     0.76778669    -0.50576652
C       -0.06881584    -0.07361646    -0.02559277
N       -0.04486072    -0.02080792     1.33888534
H        0.91828304    -0.02823145    -0.61934803
H        0.82097726     0.24668489     1.88210492
H       -0.82491027    -0.49535007     1.83034577
H       -0.68386424     0.77349977    -0.50171555
