     6
  Step:   300            Position(A)                                  Velocity(au)
C        -0.04150511     0.01539078     0.01670360    -0.00001084    -0.00003335     0.00014818
N        -0.04087977    -0.04935480     1.29916204     0.00000862     0.00004435    -0.00010102
H         0.88980299     0.01097115    -0.54010334    -0.00029599    -0.00091918    -0.00020312
H         0.81190588    -0.18439164     1.84804875    -0.00002357     0.00091068     0.00008509
H        -0.88451644    -0.06588337     1.87946122     0.00000899    -0.00124920     0.00003418
H        -0.96748755     0.07198090    -0.54802027     0.00031989     0.00103876    -0.00027814
