14

C       -6.11079396    -0.66037276     0.18980002
C       -4.77717630    -0.74314001    -0.06200327
H       -6.70829875     0.19693363     0.38040480
H       -6.63670747    -1.64451242     0.29791253
H       -4.18550670    -1.68936091    -0.22239714
C       -3.80208260     0.45884333     0.08535938
C       -2.43080403     0.33563639    -0.10449046
H       -3.99429847     1.44926718    -0.07947595
H       -1.95765209    -0.60735071    -0.39993373
C       -1.62933869     1.57566359    -0.34608609
H       -1.88809154     2.23013307    -1.17758280
N       -0.73328730     1.91976141     0.50874910
H       -0.53619687     2.94013627     0.51353376
H       -0.44854879     1.56859952     1.46100437
