    14
  Step:   600            Position(A)                                  Velocity(au)
C        -4.89328428    -1.02880001    -0.66853155     0.00057542    -0.00026449     0.00012225
C        -5.03862116     0.17840585    -0.10534481    -0.00052193     0.00020426    -0.00013180
H        -3.87446296    -1.47743282    -0.73657153     0.00118444     0.00073915     0.00036951
H        -5.79893394    -1.59227543    -0.87028850    -0.00123939    -0.00032221     0.00325371
H        -6.05939989     0.56916303     0.23179630     0.00030215     0.00101906     0.00199202
C        -4.11445247     0.72038043     0.86484721     0.00025012     0.00006250    -0.00010464
C        -2.74969204     0.98626988     0.85374433    -0.00009620     0.00017260    -0.00064203
H        -4.72692942     0.69885175     1.72796477     0.00117285    -0.00042749     0.00208035
H        -2.08748858     1.32948154     1.74524177     0.00244436    -0.00085478    -0.00292334
C        -1.97057648     0.89545001    -0.34736167    -0.00005494     0.00020975    -0.00097442
H        -2.47401949     0.45124215    -1.21916808    -0.00212800    -0.00003102    -0.00278306
N        -0.77702676     1.35543767    -0.19280440    -0.00029823    -0.00043723     0.00114213
H        -0.19007131     1.45990320    -1.06902614     0.00035732     0.00366064     0.00203469
H        -0.33918628     1.49236735     0.76602523     0.00023392    -0.00229067     0.00072727
