     6
  Step:   300            Position(A)                                  Velocity(au)
C        -0.04790535     0.02892621     0.02988537     0.00004139     0.00001805     0.00004108
N        -0.05413770    -0.05784382     1.28714871    -0.00015132    -0.00004582    -0.00002958
H         0.03572658    -0.91568943    -0.50474836    -0.00181159     0.00010020    -0.00040080
H         0.09389557     0.71308733     1.94650925    -0.00095460    -0.00025693     0.00044022
H         0.16457630    -0.95557578     1.75129623     0.00269260     0.00071397     0.00034026
H        -0.18396441     0.94753912    -0.54378811     0.00168324    -0.00013550    -0.00045809
