14

C   -6.04082020   -0.73500253   -0.00836150   -0.00023810    0.00002143    0.00008147
C   -4.65358166   -0.72428886    0.08201923    0.00037165   -0.00002108   -0.00008429
H   -6.69849931    0.12119971   -0.30079269    0.00102693    0.00074702   -0.00067692
H   -6.55904528   -1.71122019    0.05562065   -0.00058464    0.00121515   -0.00118069
H   -4.14311081   -1.59963707    0.40879652    0.00016500   -0.00007789   -0.00014834
C   -3.92425868    0.45211569   -0.11562826   -0.00015164   -0.00011499    0.00037277
C   -2.51206132    0.44730991    0.11810271    0.00002103   -0.00028059   -0.00012416
H   -4.49555494    1.32762249   -0.39120264    0.00045046    0.00000967    0.00032931
H   -2.06158973   -0.48341422    0.42122557   -0.00033758    0.00029500    0.00014925
C   -1.82941398    1.69815711   -0.04267135   -0.00003434    0.00012063   -0.00009698
H   -2.31303413    2.51693236   -0.52354440   -0.00114888   -0.00053652   -0.00165915
N   -0.55240250    1.80939337    0.30763275   -0.00005581    0.00008536    0.00017548
H   -0.12630893    2.67796077    0.01634131    0.00107089   -0.00098609    0.00006501
H    0.03021580    1.08352629    0.65363450    0.00050751    0.00141964   -0.00109019
