14

C       -5.71807709    -0.29219179     0.40721973
C       -4.43432426    -0.78849410     0.23265135
H       -6.23804000     0.05083395    -0.59025822
H       -6.28922173    -0.04615427     1.35775201
H       -3.67769463    -0.88028336     0.99857305
C       -3.85466762    -0.04088888    -0.86607961
C       -2.76662184     0.85656036    -0.61514127
H       -4.37718380    -0.00542515    -1.83271072
H       -2.81641483     1.74930150    -1.35246478
C       -1.91014296     1.10274298     0.53042669
H       -2.09451652     0.59972860     1.53539613
N       -0.82150745     1.94255214     0.54378703
H       -0.09912004     1.81524098     1.26697045
H       -0.32647644     2.38034998    -0.22142041
