6

C       -0.01143499    -0.09627352    -0.03180142
N       -0.04179049    -0.00416217     1.34018442
H        0.67830792     0.70124373    -0.47294110
H        0.74165738    -0.51107209     1.83648181
H       -0.92780588     0.16449400     1.87049511
H       -0.98809944     0.18059334    -0.58672212
