     6
  Step:   300            Position(A)                                  Velocity(au)
C        -0.02139045     0.00075196     0.02146959    -0.00007327    -0.00009605     0.00010562
N        -0.04902072    -0.05093268     1.29454800     0.00022780     0.00001890    -0.00010542
H         0.21216385    -0.87070935    -0.59428170    -0.00069765     0.00023593    -0.00073725
H        -0.04489613     0.82753905     1.82015330    -0.00207198    -0.00008474     0.00026149
H        -0.22390102    -0.91247822     1.81546237    -0.00036594     0.00052359     0.00037720
H        -0.22021388     0.98467982    -0.39463376     0.00084304     0.00020703     0.00030494
