     6
  Step:   120            Position(A)                                  Velocity(au)
C        -0.03296892     0.05644132    -0.13036791     0.00003991    -0.00003798     0.00051863
N        -0.05331612    -0.00899411     1.44198264    -0.00009168     0.00005538    -0.00041952
H         0.74346701    -0.60902334    -0.56775565    -0.00107015    -0.00137653     0.00061236
H         0.85926138    -0.09752026     1.95962903     0.00002286     0.00110258    -0.00007266
H        -0.73112691    -0.74894184     1.74285834     0.00148876    -0.00127917    -0.00117383
H        -0.95077854     0.23815343    -0.72751695     0.00035702     0.00123612     0.00028390
