14

C       -4.45609521    -0.62847867    -1.03895810
C       -4.74391713    -0.26163085     0.13228707
H       -3.70127864    -0.34557074    -1.79005698
H       -5.24612813    -1.38840977    -1.09754281
H       -5.42620973    -0.93569255     0.73659206
C       -4.21422894     0.61301745     1.17382421
C       -2.89973327     1.07264081     1.15668594
H       -4.66947414     0.50613471     2.20586789
H       -2.62594852     1.86241141     1.73842331
C       -2.04728990     0.87059726     0.00477059
H       -2.01360424    -0.16346359    -0.44328871
N       -1.14858655     1.43423892    -0.78798568
H       -0.64050661     0.88910444    -1.51271751
H       -0.89447233     2.43270578    -0.89636782
