     6
  Step:   300            Position(A)                                  Velocity(au)
C        -0.06789016     0.00144599     0.02534056     0.00008960    -0.00016095     0.00009602
N        -0.00920197    -0.04849298     1.29526432    -0.00031797     0.00004438    -0.00014686
H         0.21858198     0.95618378    -0.42509756    -0.00053116     0.00051780     0.00092618
H        -0.00455181    -0.94366499     1.79066994     0.00109524     0.00042128     0.00032063
H        -0.12308762     0.83497759     1.80626297     0.00230219     0.00024802     0.00040160
H        -0.36703334    -0.86063540    -0.58118781     0.00048480     0.00011408    -0.00075181
