6

C       -0.02465432     0.01987664     0.01613705
N       -0.06541767    -0.05602679     1.29850369
H        0.01295836    -0.89769997    -0.56063045
H       -0.14824094     0.72702523     1.94926732
H        0.18569794    -0.92996024     1.76991605
H       -0.06050587     0.97256886    -0.50325216
