     6
  Step:   120            Position(A)                                  Velocity(au)
C        -0.03590477    -0.02617408    -0.11637212     0.00000337     0.00000754     0.00004461
N        -0.04811761    -0.12936017     1.41741264     0.00005184    -0.00013015    -0.00005164
H         0.91236935     0.33222091    -0.48598897    -0.00020469     0.00003563     0.00076024
H         0.82815135     0.31159817     1.78462789    -0.00088024     0.00062060    -0.00101717
H        -0.87249184     0.39651168     1.77018083     0.00000106     0.00097185    -0.00036868
H        -0.98447538     0.39942500    -0.48692501     0.00032342     0.00009066     0.00081165
