6

C       -0.03783549    -0.01957416    -0.00912737
N       -0.05628864    -0.09820130     1.33223153
H        0.74089706     0.67183637    -0.47360521
H        0.79380382    -0.30807632     1.91118586
H       -0.61737995     0.68398455     1.77154138
H       -0.89718674    -0.11963166    -0.72148087
