14

C       -4.73993547    -0.80634145    -0.86387495
C       -4.94589694    -0.39965981     0.35528124
H       -4.61156694     0.01966217    -1.49668968
H       -4.88904589    -1.81703272    -1.16549729
H       -5.29411162    -0.94588814     1.22587154
C       -4.28186545     1.09408529     0.61535939
C       -3.07038350     1.47992520     0.18447376
H       -5.07033142     1.80963417     0.99162457
H       -2.99639243     2.53532505     0.10157342
C       -1.91400807     0.61435815     0.12337491
H       -1.88207111    -0.52577962     0.46875717
N       -0.66303436     1.11087499    -0.00979795
H        0.11246671     0.45553612    -0.27672310
H       -0.29476153     2.04990088     0.36035547
