     6
  Step:     0            Position(A)                                  Velocity(au)
C        -0.03625530     0.00953790     0.03204706     0.00018240     0.00007881    -0.00021540
N        -0.03730746    -0.06434079     1.28285972     0.00005249    -0.00002348     0.00024988
H         0.92459233     0.04458463    -0.53668435    -0.00025846    -0.00042316    -0.00028334
H         0.78810961    -0.05894088     1.87000840    -0.00038785     0.00004464    -0.00101244
H        -0.96655616     0.02908203     1.86997636    -0.00128452    -0.00009509     0.00029176
H        -1.00862599     0.09594493    -0.52020346    -0.00097212    -0.00013928     0.00009827
     6
  Step:     1            Position(A)                                  Velocity(au)
C        -0.03526368     0.00998484     0.03063788     0.00017953     0.00008458    -0.00029820
N        -0.03707515    -0.06448374     1.28445474     0.00003114    -0.00002868     0.00033135
H         0.92315636     0.04228830    -0.53836948    -0.00026490    -0.00041670    -0.00033418
H         0.78619936    -0.05867649     1.86465541    -0.00029915     0.00005228    -0.00093495
H        -0.97300970     0.02853749     1.87123441    -0.00106781    -0.00010474     0.00016477
H        -1.01387087     0.09518168    -0.51979670    -0.00094027    -0.00014028     0.00005317
     6
  Step:     2            Position(A)                                  Velocity(au)
C        -0.03429141     0.01046312     0.02878506     0.00017531     0.00009020    -0.00037697
N        -0.03696678    -0.06465449     1.28648430     0.00000735    -0.00003362     0.00040816
H         0.92169463     0.04002639    -0.54033991    -0.00026765    -0.00041043    -0.00038756
H         0.78483727    -0.05836896     1.85978107    -0.00018806     0.00006039    -0.00083789
H        -0.97823691     0.02793630     1.87177880    -0.00083784    -0.00011556     0.00003228
H        -1.01891160     0.09441044    -0.51962181    -0.00089767    -0.00014209     0.00001319
     6
  Step:     3            Position(A)                                  Velocity(au)
C        -0.03334562     0.01097173     0.02651339     0.00016975     0.00009555    -0.00045046
N        -0.03699469    -0.06485159     1.28892046    -0.00001844    -0.00003826     0.00047918
H         0.92022799     0.03779774    -0.54260980    -0.00026637    -0.00040418    -0.00044326
H         0.78414175    -0.05801572     1.85548802    -0.00005666     0.00006893    -0.00072296
H        -0.98217662     0.02727312     1.87158761    -0.00059854    -0.00012711    -0.00010265
H        -1.02369231     0.09362710    -0.51965243    -0.00084503    -0.00014451    -0.00002225
     6
  Step:     4            Position(A)                                  Velocity(au)
C        -0.03243326     0.01150899     0.02385419     0.00016288     0.00010047    -0.00051736
N        -0.03716862    -0.06507334     1.29172947    -0.00004567    -0.00004255     0.00054322
H         0.91877890     0.03560216    -0.54519187    -0.00026077    -0.00039770    -0.00050077
H         0.78421702    -0.05761445     1.85186745     0.00009164     0.00007781    -0.00059272
H        -0.98478865     0.02654497     1.87065513    -0.00035403    -0.00013889    -0.00023685
H        -1.02816140     0.09282863    -0.51986531    -0.00078310    -0.00014731    -0.00005364
     6
  Step:     5            Position(A)                                  Velocity(au)
C        -0.03156117     0.01207246     0.02084551     0.00015472     0.00010482    -0.00057628
N        -0.03749506    -0.06531770     1.29487169    -0.00007363    -0.00004640     0.00059909
H         0.91737112     0.03344083    -0.54809592    -0.00025068    -0.00039067    -0.00055927
H         0.78514570    -0.05716327     1.84899450     0.00025196     0.00008692    -0.00045071
H        -0.98605519     0.02575151     1.86899279    -0.00010896    -0.00015038    -0.00036685
H        -1.03227145     0.09201327    -0.52024009    -0.00071270    -0.00015022    -0.00008145
     6
  Step:     6            Position(A)                                  Velocity(au)
C        -0.03073607     0.01265883     0.01753254     0.00014529     0.00010841    -0.00062581
N        -0.03797636    -0.06558231     1.29830138    -0.00010143    -0.00004974     0.00064556
H         0.91602900     0.03131664    -0.55132696    -0.00023607    -0.00038274    -0.00061758
H         0.78698092    -0.05666099     1.84692330     0.00041794     0.00009607    -0.00030137
H        -0.98598395     0.02489533     1.86663082     0.00013126    -0.00016098    -0.00048884
H        -1.03597961     0.09118076    -0.52075883    -0.00063484    -0.00015294    -0.00010605
     6
  Step:     7            Position(A)                                  Velocity(au)
C        -0.02996443     0.01326386     0.01396770     0.00013468     0.00011105    -0.00066462
N        -0.03860985    -0.06586439     1.30196658    -0.00012804    -0.00005251     0.00068148
H         0.91477663     0.02923442    -0.55488326    -0.00021715    -0.00037357    -0.00067417
H         0.78973893    -0.05610744     1.84568239     0.00058203     0.00010504    -0.00014997
H        -0.98461260     0.02398230     1.86362034     0.00036036    -0.00017004    -0.00059866
H        -1.03924844     0.09033241    -0.52140555    -0.00055075    -0.00015517    -0.00012770
     6
  Step:     8            Position(A)                                  Velocity(au)
C        -0.02925229     0.01388234     0.01021025     0.00012302     0.00011260    -0.00069157
N        -0.03938705    -0.06616079     1.30580943    -0.00015233    -0.00005462     0.00070586
H         0.91363659     0.02720093    -0.55875446    -0.00019438    -0.00036284    -0.00072726
H         0.79339331    -0.05550376     1.84527098     0.00073596     0.00011355    -0.00000230
H        -0.98201375     0.02302190     1.86003524     0.00057130    -0.00017690    -0.00069198
H        -1.04204739     0.08947121    -0.52216574    -0.00046205    -0.00015660    -0.00014663
     6
  Step:     9            Position(A)                                  Velocity(au)
C        -0.02860493     0.01450821     0.00632512     0.00011053     0.00011293    -0.00070595
N        -0.04029321    -0.06646799     1.30976710    -0.00017315    -0.00005604     0.00071810
H         0.91262849     0.02522463    -0.56292021    -0.00016853    -0.00035038    -0.00077500
H         0.79787205    -0.05485261     1.84565693     0.00087151     0.00012131     0.00013581
H        -0.97829910     0.02202734     1.85597318     0.00075673    -0.00018092    -0.00076468
H        -1.04435464     0.08860177    -0.52302592    -0.00037073    -0.00015700    -0.00016300
     6
  Step:    10            Position(A)                                  Velocity(au)
C        -0.02802644     0.01513478     0.00238077     0.00009750     0.00011199    -0.00070765
N        -0.04130736    -0.06678229     1.31377365    -0.00018950    -0.00005676     0.00071813
H         0.91176742     0.02331501    -0.56734980    -0.00014065    -0.00033617    -0.00081578
H         0.80305902    -0.05415830     1.84677717     0.00098153     0.00012808     0.00025905
H        -0.97362102     0.02101536     1.85155439     0.00090973    -0.00018158    -0.00081329
H        -1.04615903     0.08772999    -0.52397349    -0.00027906    -0.00015619    -0.00017700
     6
  Step:    11            Position(A)                                  Velocity(au)
C        -0.02751932     0.01575516    -0.00155417     0.00008430     0.00010986    -0.00069743
N        -0.04240321    -0.06709993     1.31776305    -0.00020069    -0.00005682     0.00070668
H         0.91106249     0.02148162    -0.57200347    -0.00011197    -0.00032047    -0.00084858
H         0.80880080    -0.05342656     1.84854135     0.00106097     0.00013368     0.00036334
H        -0.96816984     0.02000560     1.84691770     0.00102473    -0.00017855    -0.00083561
H        -1.04746180     0.08686263    -0.52499672    -0.00018949    -0.00015418    -0.00018891
