     6
  Step:   120            Position(A)                                  Velocity(au)
C        -0.06147123    -0.06233288    -0.03434249    -0.00010535    -0.00005784    -0.00002736
N        -0.03581353    -0.05635015     1.34520229     0.00002631     0.00013114    -0.00009770
H         0.90461337     0.05717231    -0.62299773     0.00017581    -0.00105798     0.00026455
H         0.78901382     0.32780713     1.87870260    -0.00085908     0.00065514     0.00012379
H        -0.92145480    -0.26064574     1.86040462     0.00057547    -0.00166755     0.00031636
H        -0.75493763     0.73171391    -0.50826761     0.00099757     0.00093715     0.00097910
