    14
  Step:   600            Position(A)                                  Velocity(au)
C        -5.29451837    -1.00883494     0.55319471    -0.00103603    -0.00004241     0.00045405
C        -5.01139224    -0.24484397    -0.47388087     0.00014173    -0.00089447     0.00006073
H        -4.97101938    -0.91132090     1.58563343    -0.00189631    -0.00103732    -0.00126037
H        -6.19304480    -1.61785734     0.38512437    -0.00121064    -0.00018277     0.00241312
H        -5.52770938    -0.24884947    -1.42438456     0.00118597    -0.00128882     0.00010214
C        -3.87243142     0.69957592    -0.39791710    -0.00048887    -0.00036357    -0.00090323
C        -2.67901341     0.33115935     0.23395675     0.00045751     0.00112060    -0.00026432
H        -3.73534123     1.81724314    -0.97359406     0.00012395     0.00245771     0.00353819
H        -2.78113001    -0.81652781     0.47425568     0.00021864    -0.00009625    -0.00342036
C        -1.43974406     0.96087796     0.02418903     0.00005991     0.00016409     0.00004149
H        -0.66493729     0.44089039    -0.48887330     0.00005335     0.00113396    -0.00007130
N        -1.14750457     2.14966738     0.37507351     0.00077949     0.00006345     0.00041736
H        -0.31501293     2.63912064     0.04575761     0.00001379    -0.00010348    -0.00099754
H        -1.81063589     2.67289161     0.91806690     0.00099542    -0.00157687     0.00118040
