     6
  Step:   120            Position(A)                                  Velocity(au)
C        -0.03631704     0.03474649    -0.12866975    -0.00004351     0.00004237     0.00054050
N        -0.02476883    -0.00461318     1.44095661     0.00006977     0.00001134    -0.00045170
H         0.87876829     0.23625145    -0.71120319    -0.00048980     0.00120509     0.00029773
H         0.49428896    -0.87277494     1.75124264    -0.00158604    -0.00136026    -0.00075224
H        -0.91394310     0.11886333     1.96109978     0.00058347     0.00136643    -0.00017247
H        -0.89509445    -0.50205083    -0.59989698     0.00104123    -0.00187365     0.00046333
