6

C        0.07568873    -0.00118789    -0.03654775
N       -0.11958397    -0.09139804     1.32485214
H       -0.99298641     0.68392719    -0.29546133
H       -1.24465450    -0.20650977     1.68321193
H        0.71200785    -0.31799649     1.80246447
H        1.07294679     0.45499228    -0.27271235
