6

C       -0.03428455     0.01227608     0.02918845
N       -0.04525249    -0.04867656     1.29027114
H        0.88761988     0.07341601    -0.55025875
H        0.78911680    -0.22108152     1.86645031
H       -0.89911352    -0.00384108     1.85267416
H       -0.95318795     0.01187942    -0.55469966
