6

C       -0.06789016     0.00144599     0.02534056
N       -0.00920197    -0.04849298     1.29526432
H        0.21858198     0.95618378    -0.42509756
H       -0.00455181    -0.94366499     1.79066994
H       -0.12308762     0.83497759     1.80626297
H       -0.36703334    -0.86063540    -0.58118781
