6

C       -0.03263362     0.00091370    -0.02646030
N       -0.05246753    -0.07852582     1.35351351
H        0.86780613     0.40505735    -0.61973488
H        0.82343988    -0.33181522     1.84990955
H       -0.82502088     0.43866743     1.86888865
H       -0.96119841    -0.10135526    -0.70061563
