6

C       -0.06130373     0.02073686     0.01406357
N       -0.02070112    -0.05397893     1.30311693
H        0.17301756    -0.89299691    -0.52769199
H        0.08783189     0.76723350     1.90468170
H       -0.10409679    -0.99133736     1.70612610
H       -0.35152382     0.95034428    -0.46722202
