6

C       -0.03539178     0.01733374    -0.22905071
N       -0.04260043    -0.12047088     1.51554109
H        0.94615196     0.14649733    -0.69996902
H        0.85946651     0.24398062     1.99320552
H       -0.96117628     0.10157445     1.90038741
H       -1.04366856     0.30573350    -0.63269511
