    14
  Step:   600            Position(A)                                  Velocity(au)
C        -5.25825087    -1.02177471     0.88917767     0.00028282     0.00032836    -0.00075158
C        -4.89406225    -0.21253399    -0.09565202    -0.00031835    -0.00010275    -0.00003848
H        -4.93632893    -1.07263302     1.94083087     0.00107270     0.00169551     0.00021722
H        -5.91992735    -1.91317363     0.73403998    -0.00060928    -0.00048264     0.00041227
H        -5.32691105    -0.56866184    -1.22489908     0.00332749     0.00113652    -0.00085090
C        -3.93126327     0.81729451    -0.60850356    -0.00074874    -0.00031959     0.00085916
C        -2.65645069     0.57397469    -0.80866392     0.00030172     0.00003937     0.00022813
H        -4.37407122     1.84749039    -0.56637784    -0.00106162     0.00086139    -0.00138841
H        -2.53836069    -0.50364419    -0.46091160    -0.00059615    -0.00165732    -0.00025309
C        -1.66261380     1.52185973    -0.23021315    -0.00028111    -0.00059630     0.00022617
H        -1.53993649     2.49389982    -0.69501459     0.00082633     0.00086778     0.00022201
N        -1.04415483     1.41237876     0.90699358     0.00057445     0.00016409    -0.00019013
H        -0.37852849     2.04225088     1.27313082    -0.00124597     0.00168036    -0.00074996
H        -1.16236226     0.68311541     1.58368377    -0.00059631     0.00137427    -0.00120386
