12

C       -0.03599418    -0.01519074    -0.21209855
N       -0.04146182    -0.13266491     1.50457626
H        0.92953173     0.11219700    -0.71263532
H        0.72602803     0.50658365     1.84483917
H       -0.94118939     0.19586492     1.93609421
H       -0.92223802     0.54013021    -0.55700454
C       -0.03627164    -0.01555312    -0.21138679
N       -0.04078255    -0.13344935     1.50414179
H        0.93101045     0.10984634    -0.71259688
H        0.71809985     0.51505412     1.83831031
H       -0.94421313     0.19699076     1.93609247
H       -0.91889800     0.54810343    -0.55295631
