     6
  Step:   600            Position(A)                                  Velocity(au)
C        -0.05872770    -0.01953187    -0.22419574    -0.00020153    -0.00027532     0.00049038
N        -0.04646772     0.00750299     1.52779818    -0.00013712     0.00010845     0.00006762
H         0.58620258     0.72918015    -0.59887938     0.00056973    -0.00256640     0.00001053
H         0.87268925    -0.45907329     1.93107153     0.00005342     0.00132081    -0.00581785
H        -0.84498391    -0.18209913     2.17342230     0.00053695    -0.00006681     0.00038708
H        -0.48117803    -0.62974457    -1.17279543     0.00314676     0.00308606    -0.00136290
