12

C       -0.03055828     0.07290125    -0.18847599
N       -0.05067096     0.00744923     1.49808947
H        0.75046745    -0.61680155    -0.56928102
H        0.84374464    -0.27936046     1.92460187
H       -0.73807870    -0.78745189     1.67084956
H       -1.00078721     0.04162084    -0.70621628
C       -0.03047163     0.07302797    -0.18710746
N       -0.05090628     0.00736996     1.49682251
H        0.74571702    -0.62498892    -0.56500976
H        0.84433724    -0.27173239     1.92579852
H       -0.73244343    -0.79407869     1.66646777
H       -1.00002714     0.04839853    -0.70600374
