     6
  Step:   300            Position(A)                                  Velocity(au)
C        -0.02848016     0.02065131     0.02392015     0.00010784    -0.00009864    -0.00004756
N        -0.04771276    -0.06073092     1.29231773    -0.00000315     0.00019278     0.00002780
H         0.90686071     0.17701038    -0.49300136    -0.00006504     0.00001469    -0.00057921
H         0.77477777    -0.32189203     1.84476223    -0.00039297    -0.00069305     0.00001994
H        -0.92013904     0.12707440     1.79248345    -0.00039397    -0.00119963    -0.00002321
H        -0.97203436    -0.05410875    -0.49573498    -0.00038931     0.00037444     0.00076283
