     6
  Step:   300            Position(A)                                  Velocity(au)
C        -0.06682751     0.01438059     0.01281871     0.00003314     0.00008077    -0.00000306
N         0.00145401    -0.05865556     1.30690244    -0.00013509     0.00000890    -0.00001980
H         0.16845338    -0.86063554    -0.59005757     0.00028949    -0.00050621     0.00086871
H        -0.02883885     0.80990543     1.85540210     0.00106902    -0.00004745    -0.00000188
H        -0.25834802    -0.94801121     1.74308872     0.00045205    -0.00043945    -0.00048546
H        -0.31808373     0.97270778    -0.43032490    -0.00032822    -0.00009299    -0.00006982
