6

C       -0.01904091     0.01835100     0.02813128
N       -0.03638359    -0.05763701     1.28857447
H        0.03454082     0.95603602    -0.52094968
H       -0.46018747    -0.86278678     1.75689191
H       -0.05298825     0.73727423     1.93896756
H       -0.00181328    -0.91804489    -0.52458998
