     6
  Step:   120            Position(A)                                  Velocity(au)
C        -0.02225292     0.08351572     0.00509727     0.00018025     0.00012167    -0.00032533
N        -0.05204774    -0.03932110     1.32804379    -0.00007127    -0.00014181     0.00020860
H         0.71395234    -0.60841004    -0.58254771    -0.00029902    -0.00141722     0.00025813
H         0.85510360    -0.00837338     1.86278625    -0.00016791     0.00176217    -0.00008723
H        -0.85918481    -0.50990209     1.78030028     0.00011451    -0.00085519     0.00027395
H        -0.93437336     0.00813048    -0.68420034    -0.00080495     0.00103102     0.00053313
