     6
  Step:   120            Position(A)                                  Velocity(au)
C        -0.04341305     0.03846736    -0.00313812    -0.00005539     0.00006950    -0.00028069
N        -0.04013078    -0.05659160     1.33660502     0.00002735    -0.00004380     0.00015407
H         0.86968624     0.27069962    -0.67066518     0.00022809     0.00138447     0.00050505
H         0.75066091    -0.52468859     1.83270879    -0.00068794    -0.00134518    -0.00000782
H        -0.87209862     0.30136026     1.87363873     0.00049999     0.00149434     0.00024075
H        -0.88618916    -0.38911079    -0.68018215     0.00023990    -0.00175311     0.00046579
