14

C       -5.52342663    -0.67361096     0.78156343
C       -4.71642608     0.14898616     0.11474687
H       -5.69175262    -1.70846175     0.40478025
H       -5.89973927    -0.41392612     1.78415990
H       -4.40888233     1.05330248     0.63273996
C       -3.74243667     0.00357255    -1.07342632
C       -2.57781870     0.62392469    -0.91268048
H       -4.22692765     0.33096093    -2.06540189
H       -2.09640050     1.09635371    -1.85804126
C       -1.78088033     0.90119350     0.30210659
H       -1.83736048     0.13843843     1.03709722
N       -1.14308469     1.86287939     0.88489578
H       -0.74504507     1.70591744     1.79669206
H       -0.63031808     2.58660677     0.37129719
