14

C   -5.95679947   -0.96623589   -0.13413713   -0.00014698   -0.00011745    0.00005075
C   -4.64445123   -0.65267778    0.10900675    0.00010167    0.00021914    0.00002319
H   -6.67149911   -0.14842756   -0.37675170   -0.00083158   -0.00013424   -0.00043272
H   -6.32995880   -1.93140713   -0.38457954    0.00064625   -0.00072827   -0.00050995
H   -3.97122490   -1.55244609    0.28483614   -0.00043142    0.00076946   -0.00039576
C   -4.04440273    0.62712153    0.05276721    0.00011950   -0.00010044   -0.00001892
C   -2.63830120    0.61720967    0.18580130    0.00012735    0.00034079    0.00002795
H   -4.52970379    1.61917592   -0.08165196   -0.00006230   -0.00063524    0.00090584
H   -2.05337554   -0.36628252    0.38368849   -0.00086339   -0.00048369    0.00001744
C   -1.77877746    1.75379081   -0.02143626    0.00031499   -0.00025219   -0.00006071
H   -2.11245174    2.71612502   -0.40130819    0.00057310   -0.00056939    0.00103966
N   -0.51921739    1.63810920    0.20791629   -0.00013613    0.00004544   -0.00014567
H    0.15362574    2.41494375   -0.06237577   -0.00139962   -0.00010326    0.00037717
H   -0.09094716    0.69073442    0.47473245   -0.00189436    0.00018249    0.00075719
