6

C       -0.02835330     0.01420742     0.02768472
N       -0.05451144    -0.05446554     1.29162838
H        0.20884935    -0.87782672    -0.55479153
H        0.08250120     0.78566512     1.86076568
H       -0.15303113    -0.93842345     1.79315099
H       -0.25588617     0.94839289    -0.48589205
