14

C       -5.89952202    -0.43010258     0.32549361
C       -4.74857242    -0.96284911    -0.12791109
H       -5.97824795     0.64685876     0.13479630
H       -6.72115999    -0.75740671     1.02686898
H       -4.38278529    -1.96266372     0.09469694
C       -3.74674719     0.03154520    -0.48185168
C       -2.48987147     0.54899758    -0.02091163
H       -3.99945388     0.96874321    -1.18440317
H       -2.21813667    -0.17201584     0.72943149
C       -1.86364031     1.76776928    -0.19097691
H       -2.19534843     2.70607687    -0.80432654
N       -0.74975841     1.85217775     0.62839186
H       -0.04425684     2.62858733     0.63764696
H       -0.60832349     1.46012394     1.55929507
