6

C       -0.03890602     0.11331584    -0.03113342
N       -0.04174161    -0.06804334     1.35159675
H        0.84807353    -0.35258679    -0.61752883
H        0.84626107    -0.25584322     1.86110131
H       -0.96297842    -0.05001149     1.84151490
H       -0.90065341    -0.41605067    -0.60434007
