6

C       -0.01767704     0.02652698     0.02821334
N       -0.05600887    -0.05874423     1.28802050
H        0.27702358     0.94232628    -0.49843639
H       -0.17583271    -0.97761575     1.75192357
H       -0.04176028     0.76395843     1.89440953
H       -0.28340106    -0.89821629    -0.49083387
