6

C       -0.04319628     0.01126165     0.02983076
N       -0.04140620    -0.05559805     1.29082352
H        0.88993603     0.14143929    -0.52001310
H        0.82059109    -0.21964014     1.82309689
H       -0.87166827     0.13836710     1.84427612
H       -0.96167695    -0.09152757    -0.54851033
