6

C       -0.03427309     0.07519330    -0.11044462
N       -0.04029612     0.00700721     1.42020563
H        0.89867599    -0.35546240    -0.44829661
H        0.77597953    -0.55661993     1.68646266
H       -0.91999453    -0.47823317     1.71150781
H       -0.99922192    -0.27285245    -0.47723532
