     6
  Step:     0            Position(A)                                  Velocity(au)
C        -0.03040148     0.01243093     0.02513416    -0.00000084    -0.00008388    -0.00030369
N        -0.05107412    -0.05137335     1.29402998    -0.00013320     0.00005038     0.00025425
H         0.88901456     0.03028797    -0.52151731     0.00035079     0.00028623    -0.00038003
H         0.85173460    -0.14235840     1.81463936     0.00094994    -0.00016248     0.00081356
H        -0.89471458    -0.06321311     1.83108989     0.00072868    -0.00027078    -0.00067028
H        -0.98696234     0.07127995    -0.51396671    -0.00016837     0.00044653     0.00032236
     6
  Step:     1            Position(A)                                  Velocity(au)
C        -0.03046773     0.01153687     0.02121207    -0.00000922    -0.00008028    -0.00040657
N        -0.05239848    -0.05084866     1.29740366    -0.00010188     0.00004590     0.00035515
H         0.89431536     0.03353538    -0.52715746     0.00059608     0.00030782    -0.00063754
H         0.86159198    -0.14418126     1.82368973     0.00080813    -0.00016628     0.00081344
H        -0.88812295    -0.06622333     1.82503625     0.00042136    -0.00028252    -0.00039883
H        -0.98951857     0.07622888    -0.51146963    -0.00030001     0.00045991     0.00013229
     6
  Step:     2            Position(A)                                  Velocity(au)
C        -0.03060308     0.01067459     0.01623965    -0.00001344    -0.00007804    -0.00049473
N        -0.05330287    -0.05036927     1.30179963    -0.00005864     0.00004222     0.00044019
H         0.90205502     0.03702221    -0.53546466     0.00078760     0.00032950    -0.00086158
H         0.86941399    -0.14599611     1.83243488     0.00058905    -0.00016214     0.00076488
H        -0.88549642    -0.06939369     1.82236474     0.00002554    -0.00030004    -0.00006742
H        -0.99352571     0.08134135    -0.51107266    -0.00042707     0.00047591    -0.00005773
     6
  Step:     3            Position(A)                                  Velocity(au)
C        -0.03076180     0.00982959     0.01038897    -0.00001376    -0.00007705    -0.00056662
N        -0.05368138    -0.04992491     1.30703364    -0.00000862     0.00003956     0.00050835
H         0.91154553     0.04074385    -0.54600619     0.00091114     0.00035026    -0.00104246
H         0.87447863    -0.14772828     1.84042284     0.00031608    -0.00015242     0.00068257
H        -0.88756428    -0.07278722     1.82356122    -0.00040676    -0.00032274     0.00028767
H        -0.99886152     0.08664035    -0.51273261    -0.00053663     0.00049338    -0.00024008
     6
  Step:     4            Position(A)                                  Velocity(au)
C        -0.03090412     0.00898897     0.00384369    -0.00001093    -0.00007714    -0.00062158
N        -0.05349151    -0.04950382     1.31292071     0.00004221     0.00003798     0.00056014
H         0.92198790     0.04468485    -0.55827050     0.00096051     0.00036919    -0.00117536
H         0.87632877    -0.14933053     1.84736741     0.00001367    -0.00013972     0.00058172
H        -0.89439508    -0.07645433     1.82865800    -0.00081342    -0.00034898     0.00062440
H        -1.00526546     0.09213493    -0.51632495    -0.00061707     0.00051098    -0.00040790
