14

C       -5.21309483    -1.18017864    -0.64433842
C       -4.65152179     0.05437235    -0.27075167
H       -5.86976213    -1.96570984    -0.31635948
H       -4.96819844    -1.53975159    -1.65792209
H       -4.01912387     0.18998364    -1.17195485
C       -4.16605693     0.82388360     0.93795527
C       -2.73745300     0.95811503     1.16464515
H       -4.99488364     0.98737563     1.71216295
H       -2.31792145     1.21880255     2.13284632
C       -1.94775880     0.88488612    -0.05397351
H       -2.68891933     0.59265398    -0.78370627
N       -0.82309599     1.54444089    -0.49759578
H       -0.60347410     1.38944117    -1.47013632
H       -0.05329840     1.94253088    -0.02385169
