     6
  Step:   120            Position(A)                                  Velocity(au)
C        -0.03698142    -0.01870832    -0.21357233     0.00000363    -0.00004467     0.00012247
N        -0.03906625    -0.14696377     1.50954335     0.00003864    -0.00001365    -0.00008294
H         0.93707884     0.19129458    -0.69377179    -0.00000299    -0.00083209     0.00000440
H         0.67594112     0.59909731     1.77169917    -0.00076519     0.00115512    -0.00096140
H        -0.92430001     0.21278895     1.89249834    -0.00025067    -0.00092367    -0.00020008
H        -0.91811872     0.59221165    -0.51057067     0.00043861     0.00132250     0.00085040
