    14
  Step:   600            Position(A)                                  Velocity(au)
C        -5.00545032    -0.54360890     0.83311199     0.00045816    -0.00011118     0.00000807
C        -4.96948257    -0.10348557    -0.42932741     0.00066089     0.00045436     0.00010693
H        -4.21230151    -0.34297512     1.50197560     0.00093693     0.00094525    -0.00208377
H        -6.01252246    -0.67431476     1.38250639     0.00169496    -0.00167562    -0.00063475
H        -5.79024590    -0.42521190    -1.09799162    -0.00043210    -0.00058372    -0.00029962
C        -3.78945226     0.29316850    -1.15685361    -0.00027140    -0.00004603     0.00014525
C        -2.57377259     0.50725279    -0.39021664    -0.00049021    -0.00019326     0.00025198
H        -3.76760369     0.58003817    -2.22306046    -0.00193708     0.00042247    -0.00137517
H        -1.79223275     0.29509645    -1.09251477     0.00101312     0.00155574     0.00172638
C        -2.24118839     1.17560647     0.74823667    -0.00014233     0.00055229    -0.00034010
H        -2.71887123     1.36740303     1.67698309    -0.00142912     0.00202506     0.00003058
N        -0.95065057     1.60254996     0.62148847    -0.00014704    -0.00054863    -0.00011439
H        -0.20578283     1.87184856     1.27831550    -0.00263988    -0.00008436     0.00240560
H        -0.87166384     1.86449420    -0.34117397     0.00227294    -0.00279979    -0.00023074
