14

C   -5.96507434   -0.95696273   -0.12039671    0.00030346    0.00015585   -0.00012045
C   -4.62113060   -0.63702685    0.14590340   -0.00015697   -0.00020562    0.00002427
H   -6.65316156   -0.15249304   -0.50384037   -0.00078817   -0.00000169    0.00084618
H   -6.37590793   -2.03068622    0.06211970    0.00092650    0.00002381    0.00063265
H   -3.99790899   -1.46470600    0.55254500   -0.00039847    0.00057481    0.00020736
C   -3.99695357    0.62325899   -0.09368961   -0.00000151    0.00010132   -0.00008907
C   -2.68186716    0.61024227    0.23070359   -0.00016416    0.00004060   -0.00000059
H   -4.57315635    1.54892152   -0.47452144    0.00008164   -0.00003093    0.00110987
H   -2.20414002   -0.25216123    0.71878624    0.00040299    0.00041522   -0.00050746
C   -1.77832744    1.72562344   -0.01695697   -0.00042332   -0.00011079   -0.00027461
H   -2.14339985    2.61826594   -0.45355693   -0.00021538   -0.00038707   -0.00004359
N   -0.50914681    1.63971628    0.18165422    0.00029129   -0.00005045    0.00029598
H    0.11451243    2.49684301    0.13369026    0.00034179   -0.00031147   -0.00022648
H   -0.14323939    0.82379712    0.71967717    0.00087413    0.00064052   -0.00064477
