14

C   -5.97125712   -0.80709563   -0.06470497    0.00013090   -0.00002933    0.00007098
C   -4.64796669   -0.69487028    0.21663242    0.00019181    0.00019721   -0.00018194
H   -6.54021480   -0.06802084   -0.62762727    0.00037838    0.00023826   -0.00046991
H   -6.44091854   -1.77207101    0.17590935   -0.00136244   -0.00078322    0.00137192
H   -4.09451874   -1.50094883    0.68187996    0.00054118   -0.00017299   -0.00053178
C   -3.97490068    0.47866932   -0.14662039    0.00012771    0.00000034    0.00022210
C   -2.62763772    0.56116865    0.11148576   -0.00015123    0.00005878   -0.00010262
H   -4.61911041    1.30456153   -0.54729075   -0.00053142    0.00034197   -0.00109242
H   -2.13734143   -0.31786027    0.71018347   -0.00042087    0.00041928    0.00025090
C   -1.72714456    1.69727812   -0.16659982    0.00009826   -0.00004286   -0.00009281
H   -2.12088420    2.57086071   -0.75323683   -0.00082510   -0.00064007    0.00009226
N   -0.58948819    1.74913392    0.36409365   -0.00019420    0.00002854    0.00012383
H    0.11650101    2.39427969    0.04741740    0.00004778   -0.00017509    0.00008828
H   -0.14888918    1.00538046    0.86046673    0.00013512   -0.00181893   -0.00042570
