12

C       -0.01367771     0.08926406    -0.01877018
N       -0.03647381    -0.10132951     1.33900606
H        0.64922601    -0.64369273    -0.60206766
H        0.68696455     0.40679830     1.88841750
H       -0.92373549    -0.33952244     1.84988295
H       -0.95554331     0.25106993    -0.62781779
C       -0.01318900     0.08935265    -0.01871346
N       -0.03645065    -0.10119691     1.33834929
H        0.64304198    -0.65076442    -0.59860116
H        0.68180507     0.41281660     1.89116666
H       -0.91918938    -0.34692017     1.84909405
H       -0.95489118     0.25662274    -0.62479374
