6

C       -0.05962001     0.01458495     0.01475347
N       -0.00535848    -0.05142515     1.30489279
H        0.26321893     0.91638252    -0.49767349
H       -0.12099080    -0.96704455     1.75549413
H       -0.19919562     0.79921258     1.83990267
H       -0.37106656    -0.87748850    -0.51475297
