6

C       -0.08834179     0.27621723     0.05460469
N       -0.02302014    -0.28686920     1.23983440
H        1.12162273     0.97494214    -0.19654646
H        0.83361237    -0.85691181     1.62381942
H       -0.51098655    -0.94935849     1.95196608
H       -1.28457908     0.85571819    -0.36736614
