     6
  Step:   300            Position(A)                                  Velocity(au)
C        -0.03343065     0.00563435     0.02389395     0.00002607    -0.00003097    -0.00010478
N        -0.04853851    -0.04621957     1.29430920    -0.00001300     0.00000419     0.00006407
H         0.17880211    -0.89478766    -0.54701740     0.00040372    -0.00004304     0.00033388
H         0.11890404     0.78871881     1.85314102     0.00051178     0.00024440    -0.00036939
H        -0.17264590    -0.94060818     1.77587248    -0.00049607    -0.00000917    -0.00038842
H        -0.26509712     0.95203930    -0.46082066    -0.00054947     0.00011868     0.00078207
