     6
  Step:   120            Position(A)                                  Velocity(au)
C        -0.03625013    -0.04966567     0.01711646    -0.00005284    -0.00007089     0.00013709
N        -0.04578792    -0.07971893     1.31638240     0.00004139     0.00008140    -0.00018374
H         0.79086774     0.24880948    -0.69258109    -0.00036156    -0.00030385     0.00087844
H         0.80205352     0.19487245     1.85177660     0.00011106     0.00029739    -0.00042410
H        -0.90517776     0.05994032     1.84237718    -0.00039177    -0.00068948    -0.00045859
H        -0.83242997     0.52623113    -0.60640311     0.00069669     0.00040955     0.00092400
