     6
  Step:   120            Position(A)                                  Velocity(au)
C        -0.04981659    -0.05006011    -0.00735485    -0.00013746    -0.00010857    -0.00033852
N        -0.03508242    -0.07266731     1.33481816     0.00006263     0.00014361     0.00021040
H         0.87748858     0.10759032    -0.68128488     0.00062808    -0.00094991     0.00033367
H         0.76621951     0.35378214     1.82793839    -0.00022477     0.00063375     0.00031624
H        -0.95324646    -0.15919973     1.83487582     0.00005489    -0.00176080    -0.00007752
H        -0.82226358     0.63436403    -0.55094306     0.00030940     0.00137503     0.00053761
