6

C       -0.03762684    -0.01416335    -0.18570763
N       -0.03489692    -0.13914238     1.48234570
H        0.92411267     0.10252042    -0.72729449
H        0.63852771     0.61023187     1.79051351
H       -0.96267393     0.06110697     1.93337001
H       -0.87960469     0.65868810    -0.49083568
