12

C       -0.04027618     0.07144639    -0.11608684
N       -0.04076943     0.01556556     1.42945719
H        0.93531130    -0.33158157    -0.48405453
H        0.77732035    -0.56479481     1.71698519
H       -0.90159390    -0.51080204     1.68005411
H       -0.97750257    -0.33027962    -0.50187276
C       -0.04028470     0.07130548    -0.11539134
N       -0.04030326     0.01578430     1.42862154
H        0.93220115    -0.33140862    -0.47760950
H        0.77509215    -0.56380749     1.71353365
H       -0.90368402    -0.51387769     1.67677750
H       -0.97645066    -0.32972473    -0.49826479
