6

C       -0.03413029     0.00524974     0.02757493
N       -0.04031725    -0.04989705     1.28756842
H        0.02603573    -0.89550477    -0.59169959
H       -0.14899575     0.78928973     1.88219650
H       -0.05369403    -0.92296488     1.82727200
H       -0.06933537     0.99022202    -0.44681086
