     6
  Step:   300            Position(A)                                  Velocity(au)
C        -0.01800629     0.01810785     0.01863795    -0.00015640     0.00010687     0.00013795
N        -0.06620040    -0.05597003     1.29810952     0.00031536    -0.00001411    -0.00018908
H         0.29859976     0.95728526    -0.44976190    -0.00051279     0.00011295    -0.00038591
H        -0.02082730    -0.98105257     1.74771514    -0.00255166    -0.00003058     0.00026564
H        -0.02691715     0.80054979     1.85515184    -0.00056485    -0.00040019     0.00044499
H        -0.32929069    -0.88451663    -0.52214304     0.00111053    -0.00075960     0.00065894
