     6
  Step:   120            Position(A)                                  Velocity(au)
C        -0.03962631    -0.02767672    -0.03521801     0.00008781     0.00000484     0.00057406
N        -0.05318208    -0.10797320     1.35226279    -0.00006032     0.00007478    -0.00050589
H         0.72760865     0.71953001    -0.42143297    -0.00087497     0.00093845     0.00038023
H         0.82038753    -0.20803461     1.92161125    -0.00048285    -0.00151231    -0.00051707
H        -0.63578472     0.68470638     1.75127836     0.00088488     0.00095724    -0.00010913
H        -0.91390577    -0.03574560    -0.73128447     0.00026475    -0.00148030     0.00043546
