6

C       -0.03135769     0.01647530     0.02239445
N       -0.04934303    -0.05507345     1.29180277
H        0.22849457     0.97762846    -0.44304570
H       -0.10994554    -0.96192102     1.77214259
H        0.00916171     0.78746312     1.86690050
H       -0.28131216    -0.90395111    -0.52214624
