     6
  Step:   300            Position(A)                                  Velocity(au)
C        -0.03496643     0.01462594     0.03007835    -0.00003554    -0.00001198    -0.00006301
N        -0.04434949    -0.05461893     1.28927923     0.00002251     0.00002298     0.00004938
H         0.25993704     0.93337032    -0.47617428     0.00110022    -0.00018651     0.00052016
H        -0.05779138    -0.94963390     1.78760219     0.00100193    -0.00023741    -0.00054622
H        -0.07373083     0.77831944     1.88487203    -0.00111620     0.00017558    -0.00031860
H        -0.30839810    -0.84714769    -0.57892921    -0.00087529     0.00007173     0.00040930
