6

C       -0.00468126     0.01089375     0.01781511
N       -0.09549784    -0.04647430     1.30440356
H        0.18722226    -0.90838476    -0.52259111
H        0.22878387     0.77737666     1.81755402
H       -0.04819648    -0.96155176     1.77111071
H       -0.19788498     0.93880162    -0.51277530
