     6
  Step:   300            Position(A)                                  Velocity(au)
C        -0.02061256     0.00688434     0.01276603    -0.00004009    -0.00007077     0.00004389
N        -0.05743157    -0.05465155     1.30304711     0.00016227    -0.00000613    -0.00005354
H         0.24163143    -0.87451100    -0.57032410    -0.00026914     0.00009049    -0.00043348
H         0.02683292     0.83088381     1.81015946    -0.00121068     0.00019495    -0.00009647
H        -0.20255679    -0.93450146     1.80517172    -0.00056924     0.00037012     0.00018127
H        -0.23513794     0.98575819    -0.41268989     0.00027185     0.00027294     0.00056963
