12

C       -0.03573146     0.06780423     0.00751248
N       -0.04737841    -0.01290211     1.32436547
H        0.66788572    -0.69523266    -0.49941184
H        0.82145366    -0.02165414     1.92400260
H       -0.72070587    -0.73708197     1.68253714
H       -0.89741081     0.15550508    -0.70845394
C       -0.03489890     0.06760918     0.00925054
N       -0.04787401    -0.01335447     1.32268222
H        0.66312322    -0.70016368    -0.49856156
H        0.81970405    -0.01144181     1.92161623
H       -0.71741267    -0.74147937     1.68357500
H       -0.89722568     0.16323156    -0.70527552
