12

C       -0.04715089     0.06815807    -0.11398381
N       -0.04254969     0.00653132     1.43485507
H        0.74899679    -0.66136096    -0.44609148
H        0.87445790    -0.23266062     1.91982658
H       -0.73015066    -0.75620284     1.59430384
H       -0.95308031     0.07751012    -0.75701886
C       -0.04705748     0.06773173    -0.11110745
N       -0.04262119     0.00643294     1.43218858
H        0.74374583    -0.66718478    -0.44353353
H        0.87291202    -0.22270708     1.92072304
H       -0.72580471    -0.76353489     1.59287845
H       -0.95074886     0.08715995    -0.75626824
