6

C        0.01568161     0.08256025     0.04112976
N       -0.16701562    -0.05758506     1.27792499
H       -0.50190228    -0.70967110    -0.87719660
H       -0.86422624    -0.55111904     1.96485793
H        1.48752521    -0.57788299     1.77606456
H        0.79982450     0.98521223    -0.22058870
