     6
  Step:   120            Position(A)                                  Velocity(au)
C        -0.04959563    -0.03710546    -0.03265010    -0.00006938    -0.00010833    -0.00001603
N        -0.04200708    -0.04843081     1.35244986     0.00000234     0.00007130    -0.00009694
H         0.90656790    -0.09034309    -0.66508898    -0.00003686    -0.00093589     0.00026821
H         0.81274262     0.25675032     1.88658684    -0.00066029     0.00118395     0.00016439
H        -0.90856378    -0.30734642     1.85410501     0.00062332    -0.00147949     0.00016213
H        -0.84893887     0.58632935    -0.58861025     0.00086807     0.00153146     0.00094348
