     6
  Step:     0            Position(A)                                  Velocity(au)
C        -0.03699402     0.01770471     0.00674739     0.00006443    -0.00002467    -0.00025019
N        -0.05038646    -0.04527667     1.30225070    -0.00004420    -0.00006675     0.00015469
H         0.91834431    -0.03515998    -0.48463518     0.00001945     0.00036225     0.00001554
H         0.88378967    -0.15031787     1.88368272     0.00050397     0.00024492    -0.00024904
H        -0.88327104    -0.11287390     1.84721671    -0.00070745     0.00044819     0.00075779
H        -0.99078931     0.04678339    -0.53115911     0.00003049     0.00016620     0.00030741
     6
  Step:     1            Position(A)                                  Velocity(au)
C        -0.03664724     0.01757491     0.00530115     0.00006239    -0.00002288    -0.00027769
N        -0.05056322    -0.04564508     1.30320818    -0.00002117    -0.00006808     0.00019518
H         0.91874299    -0.03320039    -0.48492152     0.00012722     0.00035485    -0.00012055
H         0.88595350    -0.14892068     1.88198510     0.00028636     0.00026603    -0.00037128
H        -0.88753277    -0.11048910     1.85169419    -0.00083937     0.00042565     0.00087227
H        -0.99076607     0.04770817    -0.52972440    -0.00002346     0.00017217     0.00021621
     6
  Step:     2            Position(A)                                  Velocity(au)
C        -0.03631186     0.01745457     0.00371109     0.00006036    -0.00002125    -0.00030315
N        -0.05061793    -0.04602109     1.30438489     0.00000024    -0.00006960     0.00023506
H         0.91973541    -0.03128002    -0.48595329     0.00023555     0.00034842    -0.00025662
H         0.88692079    -0.14740902     1.87962305     0.00006814     0.00028698    -0.00049154
H        -0.89244885    -0.10821980     1.85675430    -0.00094656     0.00040650     0.00097099
H        -0.99104585     0.04866599    -0.52879507    -0.00007969     0.00017850     0.00012313
     6
  Step:     3            Position(A)                                  Velocity(au)
C        -0.03598765     0.01734274     0.00198859     0.00005837    -0.00001979    -0.00032635
N        -0.05056065    -0.04640563     1.30577668     0.00001966    -0.00007123     0.00027395
H         0.92131694    -0.02939314    -0.48772567     0.00034171     0.00034288    -0.00039107
H         0.88669809    -0.14578485     1.87661392    -0.00014750     0.00030725    -0.00060738
H        -0.89787601    -0.10604721     1.86230439    -0.00102620     0.00039050     0.00105153
H        -0.99163684     0.04965866    -0.52837889    -0.00013667     0.00018504     0.00002884
     6
  Step:     4            Position(A)                                  Velocity(au)
C        -0.03567431     0.01723845     0.00014620     0.00005641    -0.00001849    -0.00034703
N        -0.05040321    -0.04679921     1.30737740     0.00003676    -0.00007289     0.00031139
H         0.92346803    -0.02753462    -0.49022511     0.00044277     0.00033808    -0.00052204
H         0.88530963    -0.14405283     1.87298842    -0.00035680     0.00032628    -0.00071603
H        -0.90365846    -0.10395420     1.86824063    -0.00107623     0.00037730     0.00111194
H        -0.99253877     0.05068722    -0.52848001    -0.00019274     0.00019161    -0.00006584
     6
  Step:     5            Position(A)                                  Velocity(au)
C        -0.03537149     0.01714073    -0.00180217     0.00005449    -0.00001737    -0.00036487
N        -0.05015910    -0.04720183     1.30917818     0.00005123    -0.00007446     0.00034676
H         0.92615353    -0.02570017    -0.49342815     0.00053575     0.00033384    -0.00064747
H         0.88280057    -0.14222074     1.86879242    -0.00055537     0.00034345    -0.00081441
H        -0.90963216    -0.10192585     1.87445058    -0.00109548     0.00036645     0.00115081
H        -0.99374224     0.05175175    -0.52909803    -0.00024611     0.00019803    -0.00015987
     6
  Step:     6            Position(A)                                  Velocity(au)
C        -0.03507884     0.01704865    -0.00384092     0.00005262    -0.00001641    -0.00037953
N        -0.04984342    -0.04761293     1.31116670     0.00006276    -0.00007585     0.00037934
H         0.92932247    -0.02388651    -0.49730035     0.00061769     0.00032997    -0.00076514
H         0.87924074    -0.14029977     1.86408888    -0.00073814     0.00035808    -0.00089915
H        -0.91562944    -0.09994978     1.88081614    -0.00108373     0.00035748     0.00116734
H        -0.99522821     0.05285116    -0.53022696    -0.00029495     0.00020404    -0.00025203
     6
  Step:     7            Position(A)                                  Velocity(au)
C        -0.03479608     0.01696128    -0.00595269     0.00005077    -0.00001561    -0.00039068
N        -0.04947276    -0.04803132     1.31332668     0.00007108    -0.00007693     0.00040835
H         0.93290865    -0.02209159    -0.50179570     0.00068589     0.00032623    -0.00087282
H         0.87472823    -0.13830472     1.85895924    -0.00089951     0.00036951    -0.00096675
H        -0.92148383    -0.09801644     1.88721662    -0.00104172     0.00034987     0.00116141
H        -0.99696779     0.05398311    -0.53185422    -0.00033743     0.00020941    -0.00034095
     6
  Step:     8            Position(A)                                  Velocity(au)
C        -0.03452299     0.01687777    -0.00811836     0.00004894    -0.00001496    -0.00039805
N        -0.04906515    -0.04845521     1.31563756     0.00007596    -0.00007760     0.00043299
H         0.93683205    -0.02031466    -0.50685656     0.00073801     0.00032242    -0.00096839
H         0.86939225    -0.13625412     1.85350422    -0.00103362     0.00037708    -0.00101374
H        -0.92703486    -0.09611911     1.89353201    -0.00097120     0.00034314     0.00113359
H        -0.99892258     0.05514393    -0.53395996    -0.00037188     0.00021391    -0.00042520
     6
  Step:     9            Position(A)                                  Velocity(au)
C        -0.03425945     0.01679730    -0.01031736     0.00004711    -0.00001444    -0.00040143
N        -0.04863988    -0.04888220     1.31807448     0.00007720    -0.00007776     0.00045254
H         0.94100103    -0.01855624    -0.51241431     0.00077229     0.00031831    -0.00105002
H         0.86339441    -0.13416993     1.84784336    -0.00113474     0.00038026    -0.00103701
H        -0.93213322    -0.09425385     1.89964670    -0.00087491     0.00033681     0.00108524
H        -1.00104556     0.05632866    -0.53651666    -0.00039691     0.00021733    -0.00050336
     6
  Step:    10            Position(A)                                  Velocity(au)
C        -0.03400546     0.01671912    -0.01252805     0.00004527    -0.00001406    -0.00040073
N        -0.04821706    -0.04930942     1.32060868     0.00007473    -0.00007735     0.00046641
H         0.94531560    -0.01681804    -0.51839100     0.00078770     0.00031375    -0.00111631
H         0.85692716    -0.13207699     1.84211272    -0.00119783     0.00037864    -0.00103408
H        -0.93664574    -0.09241921     1.90545332    -0.00075645     0.00033051     0.00101838
H        -1.00328259     0.05753126    -0.53948933    -0.00041145     0.00021951    -0.00057413
