6

C   -0.03897296    0.02567369    0.00912648    0.00008983   -0.00010742   -0.00020813
N   -0.03747699   -0.06527098    1.30971859   -0.00018869    0.00009423    0.00013113
H    0.91311809   -0.03025655   -0.55303674   -0.00091565    0.00054542    0.00050583
H    0.83881160   -0.09972919    1.85321537    0.00189121   -0.00055196    0.00088449
H   -0.98981233    0.03428161    1.79107325    0.00072330   -0.00030597   -0.00096318
H   -0.98985773    0.02702565   -0.50827289   -0.00014726    0.00028311    0.00023077
