14

C   -6.00773268   -0.82522592   -0.05590952    0.00002814    0.00019243   -0.00012707
C   -4.69770102   -0.70162340    0.10474139    0.00028217    0.00017783    0.00010871
H   -6.64127516   -0.06286812   -0.42746564   -0.00092106   -0.00016942    0.00013953
H   -6.42884442   -1.81111180    0.08218274   -0.00065599   -0.00083080    0.00090655
H   -4.11435376   -1.55194667    0.48952733    0.00026302   -0.00115314    0.00008881
C   -3.90266524    0.50504953   -0.08826403    0.00001476   -0.00037074    0.00001978
C   -2.57165991    0.55839374    0.14128736    0.00001308    0.00025239   -0.00008370
H   -4.40497344    1.41204937   -0.52333953   -0.00036070   -0.00002417   -0.00066318
H   -2.08091762   -0.43436545    0.57178089   -0.00022791   -0.00029400   -0.00076487
C   -1.85893388    1.70542969    0.01859712    0.00012346    0.00017108    0.00008664
H   -2.22533694    2.63032903   -0.37934879   -0.00025322    0.00081802    0.00038778
N   -0.51796246    1.73602717    0.21676047   -0.00016131   -0.00021450   -0.00012446
H   -0.01291493    2.60512054    0.20009388   -0.00074234   -0.00082268    0.00034626
H   -0.00081324    0.92920632    0.55284737   -0.00036067    0.00041674    0.00123670
