6

C       -0.05078293     0.08341267    -0.02245782
N       -0.04614139    -0.08477387     1.34329207
H        0.90918531     0.14288517    -0.63675769
H        0.79100023    -0.44822320     1.85464533
H       -0.84429080     0.34033595     1.89537063
H       -0.82251441    -0.52068309    -0.62045648
