14

C       -5.34840273    -0.28925105     0.85656371
C       -4.80822882     0.36515248    -0.20474816
H       -4.90845412    -1.16351332     1.30801160
H       -6.32144379     0.06741984     1.15296950
H       -5.43689419     1.21826126    -0.53059768
C       -3.68690425     0.04023823    -0.99527860
C       -2.30535952     0.19859934    -0.71738683
H       -3.77503847    -0.59391270    -1.90516538
H       -1.83194770    -0.45863354    -1.39307990
C       -1.43947927     0.67560871     0.39779241
H       -0.36828179     0.36882593     0.51575835
N       -1.74287452     1.93351293     0.85354095
H       -0.86656277     2.16449365     1.37056751
H       -2.66113287     2.36771736     0.53511617
