     6
  Step:   300            Position(A)                                  Velocity(au)
C        -0.04908688     0.02573141     0.02908497     0.00004305     0.00001869     0.00009095
N        -0.05126176    -0.05495355     1.28740102    -0.00016359    -0.00003592    -0.00008762
H         0.07078903    -0.91970839    -0.49274404    -0.00180102     0.00004635    -0.00037565
H         0.08330921     0.72329827     1.93855724    -0.00087633    -0.00038729     0.00045794
H         0.15275614    -0.95645156     1.74987004     0.00275338     0.00072854     0.00047197
H        -0.22252522     0.94010712    -0.54037793     0.00168426    -0.00011116    -0.00042044
