6

C       -0.04292039     0.00590678     0.02797557
N       -0.05696825    -0.05202534     1.28708550
H        0.02780672     0.99818304    -0.41751164
H       -0.07659230    -0.90213508     1.85921711
H        0.29529861     0.73023501     1.87157398
H       -0.15637092    -0.84348832    -0.64037590
