     6
  Step:   300            Position(A)                                  Velocity(au)
C        -0.06192900     0.00916640     0.02150156     0.00008420    -0.00013921     0.00012650
N        -0.01510255    -0.05346186     1.29655013    -0.00029932     0.00004205    -0.00017791
H         0.23405495     0.96802121    -0.41861706    -0.00079732     0.00054708     0.00087423
H        -0.04395396    -0.95891418     1.76619777     0.00069333     0.00038484     0.00049944
H        -0.08793666     0.82121342     1.83436110     0.00250926     0.00013648     0.00032698
H        -0.36729265    -0.86640564    -0.56343851     0.00075095     0.00000609    -0.00073565
