     6
  Step:   300            Position(A)                                  Velocity(au)
C        -0.03195676     0.02574020     0.01982831     0.00006983    -0.00000860    -0.00009282
N        -0.04566853    -0.06370305     1.29668958    -0.00001102     0.00001951     0.00004850
H         0.91782795     0.18984627    -0.47586817     0.00001150     0.00020010     0.00012217
H         0.78419911    -0.32666770     1.83848280     0.00002449    -0.00029165    -0.00017205
H        -0.92148831     0.13870623     1.78010991    -0.00032008     0.00005014    -0.00039500
H        -0.97805855    -0.09312827    -0.50620517    -0.00039497    -0.00012719     0.00087695
