6

C       -0.00552944     0.09143447    -0.02120142
N       -0.05163198    -0.07254600     1.33847586
H        0.62790966    -0.68242008    -0.56540970
H        0.77453097     0.26381009     1.89771317
H       -0.86199189    -0.49062357     1.83523939
H       -0.97003061     0.15803082    -0.62278910
