6

C       -0.03199814     0.07608734    -0.21924990
N       -0.03999575     0.01723473     1.52594778
H        0.89940521    -0.35713184    -0.64798512
H        0.72595006    -0.68036867     1.74456850
H       -0.92132615    -0.42854676     1.80442936
H       -0.97987762    -0.34989950    -0.60149477
