6

C       -0.01722502     0.01740010     0.01891813
N       -0.05939958    -0.05169250     1.29819623
H        0.29970487     0.93026418    -0.47483161
H       -0.05397665    -0.98446729     1.71862234
H       -0.12064616     0.77605173     1.90033400
H       -0.30731304    -0.88063075    -0.51767308
