    14
  Step:   600            Position(A)                                  Velocity(au)
C        -5.99381036    -0.64037641     0.13251239    -0.00014929    -0.00024856     0.00058030
C        -4.68230317    -0.79500520    -0.00185815     0.00013629     0.00042586    -0.00018352
H        -6.31719947     0.36881414     0.30154323     0.00062606     0.00222895    -0.00303349
H        -6.68954808    -1.42292035     0.05249505    -0.00143058    -0.00076334     0.00353117
H        -4.16268326    -1.72883177    -0.12551074    -0.00021200     0.00042834     0.00313404
C        -3.85227223     0.41670798    -0.10385710    -0.00043128    -0.00004332    -0.00093337
C        -2.60257322     0.62254536     0.34867302     0.00061841    -0.00033907    -0.00017569
H        -4.31137680     1.03069814    -0.88079466     0.00078650    -0.00211075    -0.00195965
H        -2.36079876     0.10619393     1.23760825     0.00006718    -0.00231330     0.00025907
C        -1.62088393     1.38880105    -0.39775728     0.00035784     0.00065481     0.00017678
H        -1.75060068     1.49065580    -1.45116842    -0.00033245     0.00246486     0.00205138
N        -0.71923633     1.89815082     0.34119888    -0.00032289    -0.00046638     0.00026261
H         0.22252716     2.39712461     0.09336925    -0.00165948     0.00196672     0.00047492
H        -1.16020615     2.19255818     1.31068191     0.00030278    -0.00077963    -0.00172569
