12

C       -0.01966069    -0.06806213    -0.02576852
N       -0.03160849    -0.00735970     1.34400864
H        0.69774769     0.66390217    -0.52607235
H        0.66768062    -0.60394007     1.83420341
H       -0.92638809     0.21090909     1.86405368
H       -0.97848333    -0.02734459    -0.64989282
C       -0.01917988    -0.06832715    -0.02550361
N       -0.03158894    -0.00737693     1.34318081
H        0.69229710     0.67127114    -0.52177595
H        0.66209751    -0.60938513     1.83629566
H       -0.92113572     0.21745558     1.86401420
H       -0.97870312    -0.03241758    -0.64789484
