6

C       -0.06190136     0.02314035     0.02376327
N       -0.01656317    -0.05871552     1.29482311
H        0.15692270    -0.90566258    -0.51470053
H        0.03185122     0.78448081     1.86728528
H       -0.13952456    -0.98126650     1.73586382
H       -0.29439985     0.97286014    -0.47289290
