6

C       -0.06579529     0.00868609     0.01763312
N        0.00581085    -0.05739646     1.30347657
H        0.13309466    -0.83842131    -0.64247178
H       -0.13161444     0.79824731     1.85402408
H       -0.25909343    -0.92408026     1.78132328
H       -0.25205491     0.98858638    -0.42449849
