6

C       -0.02705060     0.02016503     0.01847272
N       -0.04497953    -0.05275147     1.29674782
H        0.90507886     0.14598860    -0.53419498
H        0.76983868    -0.33195477     1.84905572
H       -0.93922816     0.03764739     1.80204636
H       -1.00124721    -0.02868721    -0.46505415
