6

C       -0.03543695    -0.03899484    -0.01474558
N       -0.04205304    -0.10099867     1.33634697
H        0.85038841    -0.01689509    -0.71343709
H        0.63439441     0.59919943     1.73468693
H       -0.92488890    -0.11941072     1.91218144
H       -0.76616805     0.73550404    -0.43601795
