     6
  Step:   120            Position(A)                                  Velocity(au)
C        -0.02856119    -0.00318663     0.01897292    -0.00002303     0.00000849    -0.00017188
N        -0.03073438    -0.01940954     1.31747693     0.00005567    -0.00010286     0.00006777
H         0.73447076     0.50395599    -0.63846492    -0.00026614     0.00173310     0.00059523
H         0.60615322    -0.71486937     1.77917474    -0.00071900    -0.00085097     0.00023776
H        -0.90470061     0.16199996     1.88035468     0.00031043     0.00188233    -0.00008970
H        -0.88143247    -0.31317665    -0.66321675     0.00017555    -0.00143613     0.00036302
