6

C       -0.04059825     0.01334710     0.02393031
N       -0.04384243    -0.05158587     1.29117985
H        0.13427577    -0.91626959    -0.53104783
H       -0.01211074     0.78211114     1.88231703
H       -0.02842286    -0.95467596     1.78466330
H       -0.21367860     0.97688543    -0.47174790
