6

C       -0.04021568     0.00545265    -0.00659949
N       -0.03391489    -0.03500822     1.32099560
H        0.91157141     0.03251396    -0.54642657
H        0.78103556    -0.16956160     1.87387664
H       -0.96187987    -0.15776405     1.85164401
H       -0.99315674     0.04654266    -0.56544077
