     6
  Step:   300            Position(A)                                  Velocity(au)
C        -0.07430226     0.01200480     0.01635317    -0.00000954     0.00004469    -0.00004727
N         0.01575848    -0.05926016     1.30467835    -0.00002458    -0.00001376     0.00005655
H         0.09509212    -0.84025531    -0.64578827     0.00107314    -0.00011345     0.00068400
H        -0.12286001     0.78711460     1.86867095     0.00145615     0.00034136     0.00004010
H        -0.26592089    -0.93133501     1.76360558    -0.00095608    -0.00022199    -0.00091553
H        -0.25284495     0.99516728    -0.41958366    -0.00111793    -0.00034728    -0.00003120
