12

C       -0.05255978    -0.04261012     0.00616749
N       -0.03376482    -0.07365657     1.31894828
H        0.85014567    -0.04639257    -0.68640905
H        0.70102110     0.47366146     1.82817862
H       -0.91596393    -0.28849547     1.85446640
H       -0.75264032     0.72274839    -0.50625912
C       -0.05353221    -0.04276609     0.00465181
N       -0.03325455    -0.07308701     1.31987929
H        0.85267261    -0.05452874    -0.68398361
H        0.69750454     0.47856508     1.82977401
H       -0.91395072    -0.29854662     1.85306001
H       -0.74916722     0.72997576    -0.50375029
