    14
  Step:   600            Position(A)                                  Velocity(au)
C        -5.31897715     0.17359763     0.90850747    -0.00041966    -0.00023516     0.00028058
C        -4.40528639     0.46002470    -0.03173948    -0.00033677    -0.00055908    -0.00046274
H        -5.83664675    -0.73486402     1.17853807    -0.00133701     0.00001773     0.00137781
H        -5.81174790     0.97937783     1.44677566    -0.00088880    -0.00182032    -0.00003771
H        -3.98782278     1.55166435    -0.13538057    -0.00076181     0.00062575     0.00003823
C        -3.47905592    -0.31326005    -0.90071090    -0.00116714     0.00040750    -0.00050367
C        -2.19606545     0.06490914    -0.92816607     0.00029841    -0.00019582    -0.00023526
H        -4.08077242    -1.00588463    -1.42241907     0.00072833     0.00154175     0.00079337
H        -1.36876467    -0.35349951    -1.45684881     0.00032768     0.00019628     0.00020495
C        -1.98582813     1.30306619    -0.17498187     0.00105310    -0.00016111     0.00022042
H        -2.27643356     2.32869091    -0.52086880    -0.00030519    -0.00218892    -0.00248210
N        -1.88245371     1.24441623     1.16303090     0.00074541     0.00064494     0.00021504
H        -1.81141550     2.10471648     1.67975069    -0.00242669    -0.00062560     0.00181647
H        -1.47765002     0.36042556     1.51411157     0.00112179     0.00215272     0.00364991
