6

C       -0.02071110     0.01705476     0.03023153
N       -0.04815566    -0.05511275     1.28882389
H        0.19239723     0.95341264    -0.47367730
H       -0.26806186    -0.94197758     1.74339288
H       -0.03284037     0.76344750     1.90155773
H       -0.18844029    -0.88204525    -0.54945217
