     6
  Step:   120            Position(A)                                  Velocity(au)
C        -0.03108559     0.05655809     0.01477773     0.00013403    -0.00003860     0.00017416
N        -0.05296009    -0.02047965     1.31677652    -0.00009614    -0.00008072    -0.00020518
H         0.65340534    -0.68017319    -0.52607645    -0.00098140    -0.00092822     0.00033683
H         0.80783887     0.10658680     1.91194129    -0.00022804     0.00178692    -0.00009682
H        -0.69239446    -0.75446987     1.72245560     0.00085128    -0.00072777    -0.00008298
H        -0.87540724     0.26891723    -0.69076021     0.00009705     0.00145065     0.00061904
