6

C       -0.02560767     0.00266539     0.02127470
N       -0.04584575    -0.05369644     1.29357037
H        0.89342527    -0.13536960    -0.55260366
H        0.77768381     0.11422643     1.87420967
H       -0.94741489    -0.10368770     1.79092573
H       -0.99441929     0.16949572    -0.44990065
