14

C   -6.03454638   -0.76078997   -0.17317928    0.00001215   -0.00008946    0.00021487
C   -4.70305964   -0.70439838    0.20391762   -0.00025389   -0.00002123   -0.00020187
H   -6.39348837    0.09931172   -0.73790881   -0.00043804   -0.00118910    0.00010526
H   -6.71496639   -1.63466077    0.09228841    0.00113416    0.00021869   -0.00036589
H   -4.20272009   -1.47973878    0.82557744   -0.00046028    0.00031366    0.00021746
C   -3.86839960    0.42184879   -0.11933944   -0.00001073    0.00008468    0.00001408
C   -2.54857812    0.47411576    0.31480212    0.00023475    0.00042297   -0.00023201
H   -4.35209658    1.22809163   -0.66933299    0.00046644   -0.00008954    0.00129996
H   -2.06345387   -0.35260761    0.71247647   -0.00050180    0.00048386    0.00024942
C   -1.84935796    1.65278953   -0.04081225   -0.00029609   -0.00039472   -0.00026797
H   -2.34766560    2.46472761   -0.61065541   -0.00048539    0.00030503   -0.00054840
N   -0.53150204    1.84277385    0.19981771    0.00036852   -0.00002005    0.00044006
H   -0.11189693    2.68524392   -0.14132988   -0.00050870    0.00003434   -0.00008992
H    0.05091365    1.11084883    0.55681820   -0.00058808    0.00017510   -0.00134788
