    14
  Step:   600            Position(A)                                  Velocity(au)
C        -5.44573574    -1.01868931     0.55040700     0.00041098    -0.00006658    -0.00018264
C        -5.10966983     0.10329479    -0.05190653     0.00015253    -0.00006051    -0.00023591
H        -4.98450796    -1.92673493     0.08740730     0.00010907    -0.00122941    -0.00004753
H        -6.03632042    -1.24373560     1.43461497     0.00164428     0.00145371     0.00062901
H        -5.16828691     1.16395933     0.30817634     0.00271003     0.00097421     0.00187508
C        -3.82603108     0.14301128    -0.80244172    -0.00051774     0.00075769     0.00050066
C        -2.70086712     0.86479545    -0.57051296     0.00050848    -0.00078549    -0.00035832
H        -3.78575209    -0.53972911    -1.75002361    -0.00235489     0.00006449     0.00004056
H        -2.03541800     1.13550050    -1.47603398     0.00148849     0.00046264     0.00167796
C        -1.95709866     1.45453369     0.50558800    -0.00018809    -0.00014096    -0.00038713
H        -2.31643558     1.76358992     1.65306497    -0.00064234     0.00109466     0.00015283
N        -0.62304975     1.51171659     0.55236573    -0.00046787     0.00018399     0.00022652
H        -0.26691205     1.72544790     1.50063779     0.00118097    -0.00057636    -0.00090769
H         0.15398077     1.12236108    -0.02425326    -0.00199694    -0.00127531     0.00133642
