12

C       -0.02046890     0.07150533     0.01211520
N       -0.04207991    -0.07790492     1.32191390
H        0.69187441    -0.54932025    -0.64652926
H        0.76835813     0.28687063     1.86838134
H       -0.91334155    -0.35611780     1.83640742
H       -0.93116900     0.17930754    -0.68037577
C       -0.01988571     0.07219048     0.01055456
N       -0.04210999    -0.07825203     1.32294771
H        0.68941200    -0.55912525    -0.64340490
H        0.76596157     0.29461261     1.86831760
H       -0.91215299    -0.36352607     1.83505363
H       -0.93402997     0.18543809    -0.67785208
