     6
  Step:   120            Position(A)                                  Velocity(au)
C        -0.03118719     0.06655542    -0.20209846     0.00000822    -0.00001515     0.00005477
N        -0.03983898     0.01945656     1.51540167    -0.00005219    -0.00000754    -0.00003480
H         0.93746940    -0.18451082    -0.69000632     0.00073450     0.00119237    -0.00012138
H         0.68317190    -0.72676996     1.68678140    -0.00035369    -0.00122376    -0.00111996
H        -0.94506280    -0.40017184     1.81466354     0.00018952     0.00151418     0.00012534
H        -0.96329126    -0.42177350    -0.56975454     0.00005688    -0.00119748     0.00094696
