14

C       -5.62157118    -1.24933058    -0.33405614
C       -4.77841497    -0.38659714     0.10703385
H       -6.10284100    -1.33684727    -1.33360307
H       -5.83861102    -2.21585092     0.22204665
H       -4.74519329    -0.66806581     1.20654863
C       -4.15456684     0.87253282     0.15641531
C       -2.80084759     0.67306923     0.45948294
H       -4.53764533     1.75960054    -0.19953639
H       -2.33465465    -0.32869615     0.77907972
C       -1.81992183     1.63804880    -0.00155625
H       -2.05623626     2.51130531    -0.44811776
N       -0.43241922     1.54136440     0.03681522
H       -0.11350796     2.26402842    -0.60259044
H        0.25901066     0.79268029     0.26291319
