6

C       -0.06431665    -0.05937295    -0.02924593
N       -0.03928920    -0.04102145     1.34125368
H        0.90912455    -0.01545152    -0.61881671
H        0.76800231     0.35180191     1.88710629
H       -0.84708445    -0.45907850     1.84055639
H       -0.73059316     0.73049341    -0.50685615
