6

C   -0.03958609    0.01015234    0.00635765   -0.00005698   -0.00005437   -0.00005886
N   -0.05188369   -0.04762853    1.31307195    0.00011351   -0.00006942    0.00001819
H    0.95329991    0.01065048   -0.52444540    0.00037677    0.00047925    0.00009759
H    0.90040174   -0.14416275    1.81997162    0.00005596    0.00024973    0.00044190
H   -0.89640248   -0.07200101    1.82932688   -0.00086957    0.00058353    0.00052311
H   -0.97753212    0.07662192   -0.55548029   -0.00046159    0.00029996   -0.00061400
