12

C       -0.02330527     0.06470907    -0.00371575
N       -0.05188771    -0.03915081     1.34083719
H        0.75807434    -0.53720050    -0.62845971
H        0.87179390    -0.01902952     1.84003821
H       -0.90048530    -0.46301387     1.78509796
H       -0.94355178     0.12243867    -0.69311409
C       -0.02250911     0.06540014    -0.00555729
N       -0.05240950    -0.03980650     1.34187034
H        0.75545714    -0.54559195    -0.62585672
H        0.87249027    -0.01035135     1.84158289
H       -0.89787185    -0.46780550     1.78561250
H       -0.94648043     0.12782051    -0.69018952
