     6
  Step:   300            Position(A)                                  Velocity(au)
C        -0.06428028     0.01457538     0.01778998     0.00005887    -0.00010752     0.00013961
N        -0.01012587    -0.05827244     1.29976406    -0.00024923     0.00002129    -0.00018180
H         0.22515203     0.97195990    -0.42845096    -0.00065079     0.00055227     0.00094166
H        -0.04462446    -0.96494820     1.76720804     0.00053173     0.00036779     0.00039151
H        -0.09898050     0.81756747     1.82892369     0.00217023     0.00019134     0.00004857
H        -0.38779998    -0.85827611    -0.54960620     0.00071077    -0.00012595    -0.00051903
