14

C       -5.90143800    -0.77844330    -0.45405033
C       -4.55879536    -0.72443143    -0.04089980
H       -6.52357107     0.17905770    -0.58595928
H       -6.50149927    -1.68957690    -0.78207492
H       -3.86397714    -1.43738716     0.35590872
C       -3.94265355     0.53631411     0.39223750
C       -2.56527141     0.52125691     0.52559440
H       -4.51829937     1.51388445     0.51192561
H       -2.12976015    -0.51009504     0.62880400
C       -1.87770888     1.72122228     0.28510518
H       -2.61110419     2.65036532     0.45443577
N       -0.62852464     1.70555740    -0.19767272
H       -0.17620249     2.33657648    -0.88171203
H       -0.34621604     0.69306488    -0.37657143
