     6
  Step:   300            Position(A)                                  Velocity(au)
C        -0.04068481    -0.01205763     0.02081291     0.00007781     0.00004321    -0.00004081
N        -0.04866918    -0.01174781     1.30147230    -0.00002218    -0.00011963    -0.00000701
H         0.90928061    -0.16496410    -0.47405197    -0.00025630    -0.00071296    -0.00001003
H         0.83871236    -0.08528790     1.81509697     0.00014458     0.00135815     0.00002600
H        -0.88183469    -0.35088875     1.78152924    -0.00033552     0.00000725    -0.00041423
H        -0.91795522     0.23829402    -0.56426158    -0.00017182     0.00049504     0.00098200
