     6
  Step:   300            Position(A)                                  Velocity(au)
C        -0.04017693     0.04639349     0.02605331     0.00004120    -0.00001662     0.00000191
N        -0.05205609    -0.10734736     1.29585610    -0.00002041     0.00007401    -0.00000772
H         0.92981240     0.13956206    -0.45544536    -0.00029361     0.00104094     0.00007981
H         0.83474867    -0.10106454     1.81349051     0.00014264    -0.00154422    -0.00007054
H        -0.84838319     0.25544080     1.81922507    -0.00006997     0.00066564    -0.00059942
H        -0.92698268    -0.02477878    -0.60333147     0.00001358    -0.00099277     0.00067462
