6

C       -0.03435870     0.03108096    -0.17683171
N       -0.03469865    -0.11090464     1.47195971
H        0.88283234    -0.22836171    -0.73264852
H        0.71456802     0.49369237     1.95530753
H       -0.95010997    -0.24610986     1.92960330
H       -0.96863259     0.48181538    -0.60795546
