     6
  Step:   120            Position(A)                                  Velocity(au)
C        -0.02578631     0.06732799    -0.00788152    -0.00008539    -0.00000367     0.00053221
N        -0.04225746    -0.00606171     1.34126360     0.00010658    -0.00008192    -0.00049544
H         0.82443232    -0.03263228    -0.73651656    -0.00019829     0.00110896     0.00048422
H         0.63710407    -0.73781110     1.67882349    -0.00083780    -0.00040004    -0.00016689
H        -0.93360920    -0.04904047     1.89522496    -0.00009394     0.00154915     0.00000146
H        -0.84636464    -0.56834212    -0.49025193     0.00066645    -0.00107594     0.00022413
