6

C   -0.03454395   -0.00624896    0.02818438    0.00004196    0.00001141   -0.00024030
N   -0.05141580   -0.03589598    1.28108891    0.00000296    0.00000717    0.00021450
H    0.88679408    0.04724006   -0.49424963   -0.00040628   -0.00027356    0.00055098
H    0.85137876   -0.18698422    1.90535136   -0.00012164    0.00016139   -0.00043277
H   -0.84868208   -0.10315980    1.85531244    0.00012426   -0.00031020    0.00032096
H   -0.97630841    0.14641176   -0.51268119   -0.00013744    0.00018674   -0.00055655
