6

C   -0.04454144    0.01935510    0.02687334   -0.00003452   -0.00008939    0.00034330
N   -0.03639339   -0.06744239    1.29471253   -0.00016965   -0.00006482   -0.00032637
H    0.95465725    0.02421592   -0.52306567    0.00037320    0.00045195   -0.00016685
H    0.82000559   -0.08312647    1.81588465    0.00147491    0.00057885    0.00077082
H   -0.97651583    0.03309449    1.83710214    0.00071106    0.00050103    0.00016905
H   -0.97459112    0.06260533   -0.54988499    0.00020973    0.00043405   -0.00032845
