6

C       -0.00703519     0.00129285     0.02349516
N       -0.09171566    -0.04797637     1.29458921
H        0.15798469     0.96918241    -0.45202754
H       -0.06857786    -0.90074297     1.87172833
H        0.18676041     0.75890792     1.85671321
H       -0.13074776    -0.84582401    -0.65441386
