    14
  Step:   600            Position(A)                                  Velocity(au)
C        -4.48263572    -0.77401178    -1.23780229    -0.00011583     0.00028141    -0.00083195
C        -4.82338747    -0.21082318    -0.07641763     0.00064320    -0.00090758     0.00044979
H        -3.70439680    -0.19358478    -1.75992753     0.00062741     0.00092333    -0.00043071
H        -4.80882092    -1.71690696    -1.65584662    -0.00032071     0.00089898    -0.00167206
H        -5.56957601    -0.70314022     0.59614087    -0.00166100     0.00070703     0.00108260
C        -4.27128015     1.19564127     0.40901071     0.00023128     0.00026611     0.00036602
C        -3.03222181     1.39087235     1.14567791     0.00004852     0.00007508     0.00000335
H        -5.06283878     1.94049473     0.73944824    -0.00022220     0.00046567     0.00190394
H        -3.11812852     2.21150213     1.91117350     0.00084816     0.00193299    -0.00044757
C        -1.60039377     1.18812484     0.65499564    -0.00053877     0.00043842    -0.00063008
H        -0.95013872     1.92248074     1.22702196    -0.00065267     0.00016550    -0.00173708
N        -1.26337331     0.42377730    -0.39582083    -0.00008848    -0.00023143     0.00055642
H        -0.24857985     0.40345647    -0.77962398     0.00085266    -0.00325680     0.00091251
H        -1.96316025    -0.35650184    -0.43491418    -0.00144026    -0.00044928     0.00031663
