6

C       -0.00944731     0.01290294     0.01524006
N       -0.08570844    -0.05058728     1.30464270
H        0.24556624    -0.89235250    -0.52589843
H        0.16310877     0.79297293     1.82880029
H       -0.06104936    -0.97299684     1.75389443
H       -0.25695982     0.95181770    -0.47614197
