14

C   -5.97105607   -0.93111516   -0.10232801   -0.00007401    0.00004957    0.00003176
C   -4.69509891   -0.70479762    0.14644262   -0.00021446   -0.00022871    0.00003389
H   -6.58817542   -0.15158928   -0.59915273    0.00062073   -0.00004413    0.00014853
H   -6.46368858   -1.89619185   -0.03637486    0.00014089    0.00140574   -0.00057624
H   -4.03212133   -1.49606370    0.47175251   -0.00021550   -0.00007992    0.00019083
C   -3.98978757    0.60251453   -0.03493147   -0.00021115   -0.00014009   -0.00003463
C   -2.61104281    0.63127126    0.19026376    0.00030362   -0.00004092   -0.00014992
H   -4.53990687    1.41254818   -0.49106548    0.00118475   -0.00027882    0.00062151
H   -2.14174705   -0.27220787    0.58399894    0.00051815    0.00031628    0.00060726
C   -1.81015437    1.73314244   -0.07708219   -0.00009343    0.00016602    0.00003365
H   -2.08483216    2.70229139   -0.54606081   -0.00089017    0.00073563   -0.00050352
N   -0.49182689    1.67888138    0.25768814    0.00000433   -0.00001604   -0.00006191
H    0.19105814    2.37961630   -0.04047714    0.00134592    0.00041151    0.00045772
H   -0.15506878    0.77169686    0.63212238    0.00068385    0.00006998    0.00093024
