     6
  Step:   120            Position(A)                                  Velocity(au)
C        -0.03516217     0.01799160    -0.05709727    -0.00002752    -0.00001810     0.00069088
N        -0.03755549    -0.03842104     1.37194333     0.00005839    -0.00000537    -0.00059445
H         0.80055011     0.48849047    -0.63785440    -0.00077957     0.00140340     0.00045943
H         0.58485245    -0.75826223     1.83984682    -0.00160804    -0.00103528    -0.00069825
H        -0.80222304     0.36801733     1.96597579     0.00088648     0.00143746    -0.00019909
H        -0.85525926    -0.44851184    -0.66054642     0.00101764    -0.00151535     0.00046607
