     6
  Step:   120            Position(A)                                  Velocity(au)
C        -0.03479675    -0.00230806    -0.19502133    -0.00005253    -0.00015035     0.00022899
N        -0.04060348    -0.11093761     1.48997555     0.00004732    -0.00013273    -0.00015972
H         0.92993776    -0.00919635    -0.70219968     0.00026764    -0.00056051    -0.00011184
H         0.76555612     0.47244755     1.89374720    -0.00104608     0.00241898    -0.00084114
H        -0.95746076    -0.06562457     1.92253069     0.00013028    -0.00050144    -0.00030037
H        -0.97209387     0.50173065    -0.60339265     0.00061649     0.00227900     0.00074422
