    14
  Step:   600            Position(A)                                  Velocity(au)
C        -5.66434129    -0.90867241     0.38527237    -0.00018685    -0.00000720     0.00034186
C        -4.60641042    -0.58091256    -0.21960868    -0.00002635    -0.00047060    -0.00060189
H        -6.10302802    -0.30987858     1.18718199     0.00146248     0.00217470     0.00079163
H        -6.19534296    -1.84982992     0.34615908     0.00015196    -0.00173598     0.00131015
H        -4.12419104    -1.33919905    -0.90205897    -0.00037862     0.00035611    -0.00025182
C        -3.65741515     0.42649445     0.25392257    -0.00028519    -0.00023856    -0.00016376
C        -3.01862702     1.35533316    -0.42503064     0.00010870     0.00082581    -0.00000693
H        -3.19290662    -0.08622124     1.21436569    -0.00047754     0.00075725     0.00202368
H        -3.44287587     1.36254967    -1.57570886     0.00044977    -0.00226155    -0.00156465
C        -1.61963688     1.47822965    -0.48066123     0.00016251     0.00054949    -0.00008395
H        -1.27293359     1.36157516    -1.51808890    -0.00153542    -0.00213980     0.00082476
N        -0.93442737     1.39628398     0.68860154     0.00027300    -0.00046059     0.00021596
H        -0.03416019     1.93770998     0.83674223    -0.00087513     0.00213165    -0.00001753
H        -1.38388752     1.06410944     1.64852783     0.00011595    -0.00073373     0.00001571
