     6
  Step:   300            Position(A)                                  Velocity(au)
C        -0.04185834     0.01563549     0.02911122    -0.00001610    -0.00003184     0.00015930
N        -0.04074372    -0.05017634     1.29021972    -0.00000688     0.00002141    -0.00010046
H         0.87631337    -0.05505188    -0.55013474    -0.00015010    -0.00111228    -0.00006870
H         0.80841131    -0.12927616     1.85544224     0.00016262     0.00125306    -0.00005316
H        -0.88517773    -0.13356661     1.87004572     0.00004613    -0.00131377    -0.00034389
H        -0.94753785     0.15906133    -0.55954271     0.00022890     0.00125495    -0.00003652
