     6
  Step:   300            Position(A)                                  Velocity(au)
C        -0.04292039     0.00590678     0.02797557     0.00001047     0.00002609    -0.00008507
N        -0.05696825    -0.05202534     1.28708550    -0.00003981     0.00003908     0.00010370
H         0.02780672     0.99818304    -0.41751164    -0.00157940    -0.00015883    -0.00052044
H        -0.07659230    -0.90213508     1.85921711    -0.00128840     0.00017414     0.00029637
H         0.29529861     0.73023501     1.87157398     0.00178401    -0.00097714    -0.00006593
H        -0.15637092    -0.84348832    -0.64037590     0.00151225     0.00010783    -0.00013734
