14

C       -6.01461706    -0.41185534     0.32860184
C       -4.64993829    -0.55474722     0.42991034
H       -6.55531921    -0.27909835    -0.61774883
H       -6.53339369    -0.63606731     1.26014466
H       -4.53985428    -0.87796000     1.54582966
C       -3.63466146    -0.11030687    -0.57280398
C       -2.52524617     0.60694064    -0.78037186
H       -4.25671451    -0.02307857    -1.57870553
H       -2.43291157     1.07580866    -1.79931176
C       -1.59315538     1.08558477     0.34696328
H       -1.44481044     0.36744652     1.24324111
N       -0.91938398     2.18383545     0.48044500
H       -0.79725409     2.46345823     1.42704415
H       -1.17173282     2.86771613    -0.19086052
