6

C       -0.03943496     0.02023909     0.01845079
N       -0.04268423    -0.05836770     1.29798264
H        0.03204366    -0.87833964    -0.58758091
H       -0.07211077     0.75546706     1.92384828
H        0.01061626    -0.94661292     1.80077454
H       -0.12042105     0.96965858    -0.50208720
