     6
  Step:   300            Position(A)                                  Velocity(au)
C        -0.04282843     0.00773948     0.03033138     0.00000257     0.00002475    -0.00005754
N        -0.05476556    -0.05280030     1.28456705    -0.00002396     0.00003626     0.00007992
H         0.02042576     0.99499878    -0.42355596    -0.00150911    -0.00017089    -0.00052436
H        -0.10726235    -0.90227022     1.85788068    -0.00130840     0.00022359     0.00027828
H         0.29236158     0.72670578     1.87511022     0.00164597    -0.00096426    -0.00003175
H        -0.14708800    -0.84770887    -0.62960554     0.00147379     0.00011272    -0.00014718
