6

C       -0.03588602    -0.00688282     0.02484313
N       -0.03931088    -0.03269373     1.29617339
H        0.85641465     0.15280197    -0.59585456
H        0.79209256    -0.26027638     1.85000614
H       -0.89976648     0.02074693     1.84668555
H       -0.98779530    -0.04673516    -0.51688629
