14

C   -6.01580289   -0.72734978   -0.25355827    0.00031334   -0.00009016    0.00015393
C   -4.76514759   -0.74484816    0.25335217   -0.00033708    0.00005661   -0.00021244
H   -6.29240028    0.17407186   -0.73660459   -0.00051801   -0.00113348    0.00057641
H   -6.80145188   -1.44751520   -0.13026174    0.00036206   -0.00005608    0.00081307
H   -4.30991390   -1.61083481    0.72831697    0.00067329    0.00009722    0.00013732
C   -3.84530021    0.36769667   -0.00360466    0.00010129    0.00021184   -0.00017258
C   -2.51359349    0.50872326    0.34935549   -0.00034207    0.00004117    0.00005505
H   -4.41992131    1.21463167   -0.48760806   -0.00010549   -0.00009348    0.00009270
H   -1.97622464   -0.33975669    0.83129452   -0.00072264   -0.00020400   -0.00008506
C   -1.86693533    1.66950703   -0.08775887   -0.00003472   -0.00017954   -0.00014061
H   -2.46817801    2.47870518   -0.53926206    0.00025372    0.00017119    0.00053301
N   -0.51534086    1.83949375    0.13458164    0.00024584    0.00006653    0.00022712
H   -0.05083836    2.65958586   -0.23396932   -0.00015065    0.00038552   -0.00030981
H   -0.00721255    1.15512507    0.63988438    0.00035735   -0.00056721   -0.00114062
