6

C       -0.01999292     0.01013870     0.01743226
N       -0.05839113    -0.05542539     1.29860162
H        0.26341460    -0.86217847    -0.56293985
H        0.01385066     0.81931665     1.82564930
H       -0.15664365    -0.94721646     1.79173244
H       -0.28390165     0.96968679    -0.41594287
