6

C       -0.00437303     0.00811920     0.02039772
N       -0.09862629    -0.05459219     1.29993655
H        0.20279932     0.98619909    -0.42863875
H        0.04331285    -0.92932280     1.81695560
H        0.15307050     0.75919256     1.86458138
H       -0.18945004    -0.82396322    -0.66831129
