     6
  Step:   600            Position(A)                                  Velocity(au)
C        -0.03182536     0.18239126    -0.02516885     0.00073333     0.00009815    -0.00033932
N        -0.06728451    -0.22566368     1.32484924    -0.00023572    -0.00011886     0.00051218
H         0.76355468    -0.52192483    -0.34213353    -0.00058067    -0.00195521    -0.00472582
H         0.67433608    -0.77525417     2.13772041     0.00325867    -0.00238797     0.00470817
H        -0.51198638     0.73451730     1.39581974    -0.00343533     0.00180531    -0.00641377
H        -0.82476372     0.85531111    -0.40961818    -0.00470549     0.00302007     0.00335739
