6

C       -0.04071634     0.06810576    -0.18337777
N       -0.04078134     0.01336782     1.49883901
H        0.83082898    -0.53327677    -0.50995909
H        0.82962627    -0.39223160     1.84286038
H       -0.80908588    -0.71383709     1.63191661
H       -1.01240798    -0.02775662    -0.71602086
