14

C       -5.92234525    -0.92284925    -0.01661651
C       -4.71291860    -0.51100990     0.33058536
H       -6.23799420    -0.84394694    -1.06010419
H       -6.65302835    -1.09636100     0.72881023
H       -4.51598379    -0.43541156     1.41885881
C       -3.86686646     0.42990427    -0.42423760
C       -2.56376511     0.49218496    -0.26516857
H       -4.43041086     1.30798739    -0.48411861
H       -2.15084004    -0.27208509     0.33413345
C       -1.82966798     1.68274457     0.25708610
H       -2.40785437     2.41390378     0.84183829
N       -0.60426644     1.73537039     0.29081937
H       -0.01598580     2.23275501     1.01841985
H       -0.00328932     1.26538478    -0.41505126
