12

C       -0.04011176    -0.02769840    -0.03847303
N       -0.05285070    -0.10838240     1.35512983
H        0.73251948     0.71426932    -0.42362867
H        0.82308048    -0.19961000     1.92455443
H       -0.64068657     0.67923857     1.75193591
H       -0.91542799    -0.02749698    -0.73374388
C       -0.03962631    -0.02767672    -0.03521801
N       -0.05318208    -0.10797320     1.35226279
H        0.72760865     0.71953001    -0.42143297
H        0.82038753    -0.20803461     1.92161125
H       -0.63578472     0.68470638     1.75127836
H       -0.91390577    -0.03574560    -0.73128447
