     6
  Step:   120            Position(A)                                  Velocity(au)
C        -0.04610553     0.06707439    -0.09221290     0.00004108    -0.00008296     0.00057070
N        -0.04347995     0.00493231     1.41482118    -0.00003178    -0.00002185    -0.00052872
H         0.72290719    -0.68654328    -0.43888224    -0.00097163    -0.00094526     0.00032554
H         0.86585964    -0.18482290     1.92668082    -0.00032924     0.00176793     0.00002721
H        -0.70814313    -0.77877820     1.59463772     0.00080176    -0.00120777    -0.00009132
H        -0.93992941     0.11256386    -0.75244131     0.00045114     0.00167730     0.00028541
