    14
  Step:   600            Position(A)                                  Velocity(au)
C        -5.34963986     0.08194313     0.92882279     0.00014596     0.00042057     0.00040134
C        -4.50037050    -0.55117108     0.06385865    -0.00049455    -0.00034732    -0.00028739
H        -5.19884148     1.06616080     1.44247256     0.00265318    -0.00092816     0.00166988
H        -6.11331685    -0.73086908     1.25977312     0.00126708     0.00054120    -0.00141851
H        -5.05946402    -1.40043097    -0.41292864    -0.00087355    -0.00132329     0.00018402
C        -3.44324496    -0.37255018    -0.95885302     0.00028328    -0.00016856     0.00042536
C        -2.33119525     0.32453560    -0.70734379    -0.00005354     0.00020065    -0.00116772
H        -3.57426800    -0.94564690    -1.81903213    -0.00019576    -0.00227879    -0.00087621
H        -1.43496485     0.53284379    -1.32066332    -0.00000117    -0.00025095     0.00145760
C        -2.36124229     1.30040941     0.28263659    -0.00010274    -0.00014432    -0.00039244
H        -3.21388047     1.40035618     0.95800338    -0.00208272     0.00159485    -0.00089324
N        -1.37805117     2.05397139     0.60458488     0.00019428     0.00004896     0.00103948
H        -1.38680504     3.00096004     1.17351036    -0.00113340     0.00366514    -0.00275042
H        -0.52324615     1.84288935    -0.01092467     0.00030698    -0.00123581     0.00034636
