6

C       -0.04717926     0.06293443    -0.01922526
N       -0.05929020    -0.09988334     1.34056467
H        0.88154360     0.35237859    -0.60420001
H        0.80762248    -0.41875549     1.85644776
H       -0.70680190     0.53810775     1.89295751
H       -0.80918861    -0.50342869    -0.65304505
