     6
  Step:   120            Position(A)                                  Velocity(au)
C        -0.03141922     0.00117611    -0.19973480     0.00004042    -0.00015660     0.00019971
N        -0.05729403    -0.12688749     1.49536873    -0.00016146    -0.00005213    -0.00017088
H         0.86877723     0.51270417    -0.60637011    -0.00057404     0.00210862     0.00072583
H         0.86965884    -0.04305353     1.96141960     0.00049727    -0.00037801     0.00016193
H        -0.77474900     0.56139126     1.83685263     0.00194536     0.00137589    -0.00091267
H        -1.00604339     0.04843050    -0.70000240    -0.00010648    -0.00051602     0.00001984
