     6
  Step:   300            Position(A)                                  Velocity(au)
C        -0.03886319     0.02123682     0.01505536     0.00001909     0.00000550     0.00011559
N        -0.04420509    -0.05890567     1.30010857    -0.00003445    -0.00000117    -0.00007743
H        -0.00416940    -0.88472855    -0.58164414     0.00093823     0.00023546    -0.00018188
H        -0.10491336     0.74886478     1.92559066     0.00121307    -0.00000133     0.00012412
H         0.05453007    -0.94672823     1.79899927    -0.00091870     0.00002486     0.00003635
H        -0.08098854     0.97832495    -0.49705416    -0.00098135    -0.00030826    -0.00027998
