6

C       -0.02335178    -0.05965984    -0.03310992
N       -0.05103196    -0.06173562     1.34770261
H        0.77139564     0.63243051    -0.52121429
H        0.83309222    -0.29602578     1.86618579
H       -0.86088930     0.37633589     1.85059814
H       -0.96911017     0.18628017    -0.63714076
