     6
  Step:   120            Position(A)                                  Velocity(au)
C        -0.03268661     0.10098087    -0.01134563     0.00001339     0.00022114    -0.00040424
N        -0.04394948    -0.04715894     1.34333806    -0.00004147    -0.00022693     0.00024610
H         0.83301589    -0.37029780    -0.63000334     0.00045591    -0.00042936     0.00040164
H         0.84593303    -0.27893946     1.80682686     0.00040305     0.00063482     0.00028524
H        -0.96177259    -0.21741868     1.82497756    -0.00001456     0.00079630     0.00030047
H        -0.92988227    -0.35109309    -0.64208122    -0.00042770    -0.00048330     0.00040961
