6

C   -0.03234455    0.02685109    0.01365695    0.00010778    0.00002829   -0.00015958
N   -0.03679366   -0.06523728    1.30826764    0.00008849    0.00002995    0.00018816
H    0.88955841   -0.06337714   -0.54567604    0.00006987   -0.00018685   -0.00009469
H    0.80025966   -0.07071021    1.82583066   -0.00030606   -0.00025122   -0.00062838
H   -0.98807978   -0.01284907    1.79488044   -0.00122544   -0.00024453    0.00050379
H   -1.01795930    0.06375965   -0.52587859   -0.00105238   -0.00007065   -0.00049399
