     6
  Step:   300            Position(A)                                  Velocity(au)
C        -0.06129050     0.00850458     0.01665086     0.00004216    -0.00009194     0.00005220
N        -0.02244224    -0.05553761     1.30013554    -0.00018270     0.00001414    -0.00005984
H         0.22051171     0.95689421    -0.43198764     0.00026697     0.00012443     0.00076283
H         0.02571334    -0.93861378     1.81895271     0.00127326     0.00026858     0.00008879
H        -0.04540227     0.83311263     1.80875883     0.00070680     0.00018181    -0.00025397
H        -0.37154820    -0.85074553    -0.56922934    -0.00021047     0.00032435    -0.00038799
