12

C       -0.03533935     0.07428513    -0.11309468
N       -0.03966994     0.01014089     1.42555581
H        0.89623040    -0.35764370    -0.48697067
H        0.77578685    -0.54916405     1.71134904
H       -0.91709544    -0.51417700     1.70447464
H       -0.99550123    -0.27491098    -0.49921477
C       -0.03525743     0.07454003    -0.11165725
N       -0.03973913     0.01042549     1.42434031
H        0.89722660    -0.35919406    -0.48592541
H        0.77539627    -0.55120196     1.70888925
H       -0.91704104    -0.51513946     1.70286236
H       -0.99617598    -0.27735247    -0.49642536
