6

C       -0.03525743     0.07454003    -0.11165725
N       -0.03973913     0.01042549     1.42434031
H        0.89722660    -0.35919406    -0.48592541
H        0.77539627    -0.55120196     1.70888925
H       -0.91704104    -0.51513946     1.70286236
H       -0.99617598    -0.27735247    -0.49642536
