    14
  Step:   600            Position(A)                                  Velocity(au)
C        -4.84736004    -0.34836673    -0.94104450    -0.00008593    -0.00022325    -0.00048979
C        -4.98055083    -0.22029769     0.44305784     0.00066880     0.00045578    -0.00067463
H        -3.82406472    -0.30895444    -1.26763839     0.00078074     0.00129343    -0.00192875
H        -5.66625597    -0.25235329    -1.66932057    -0.00240659     0.00162093     0.00030136
H        -5.98173316    -0.34161534     0.93131751    -0.00028738     0.00259564     0.00053675
C        -3.74996859    -0.31241893     1.06976623     0.00047165    -0.00065052     0.00043643
C        -2.68950615     0.43848223     0.72445280    -0.00008681     0.00024778     0.00092759
H        -3.81946957    -1.06196918     1.90031808    -0.00067657     0.00073489     0.00055441
H        -2.12122553     0.69140691     1.58864806     0.00208069    -0.00043794    -0.00018148
C        -2.14661858     1.15245353    -0.42879001    -0.00041118    -0.00008266     0.00025222
H        -1.98428276     0.69573341    -1.56938239     0.00106621     0.00050016     0.00089411
N        -1.11613750     2.13392619    -0.32600526    -0.00066243    -0.00023291    -0.00042173
H        -0.47095293     2.26670746    -1.08633675     0.00080680    -0.00073755    -0.00033256
H        -1.17271141     2.83938859     0.37925122     0.00120981     0.00068019     0.00063264
