6

C       -0.03851056     0.02606358    -0.01092746
N       -0.03607623    -0.05109217     1.32010179
H        0.92224050    -0.05831109    -0.48825627
H        0.79992153    -0.16662652     1.82953435
H       -0.96758940    -0.09042544     1.90592171
H       -1.00728435     0.04500534    -0.56954686
