     6
  Step:   300            Position(A)                                  Velocity(au)
C        -0.00847249     0.01318315     0.02103161    -0.00001542     0.00001195    -0.00005126
N        -0.08059564    -0.05363677     1.29665972     0.00004040     0.00002994     0.00006632
H         0.21068158     0.97028825    -0.45515996     0.00108746    -0.00026855    -0.00006588
H        -0.03267318    -0.95476998     1.77945341     0.00094204    -0.00031115    -0.00078780
H        -0.00886993     0.76932897     1.90470680    -0.00138828     0.00012399     0.00015218
H        -0.16113046    -0.86639693    -0.60642574    -0.00101891    -0.00010275     0.00039069
