6

C   -0.03287397    0.01860766    0.02919753   -0.00009953   -0.00004600   -0.00027811
N   -0.03981697   -0.05115222    1.29090246    0.00005415    0.00004954    0.00025266
H    0.91751448   -0.03328917   -0.54350794    0.00073090    0.00029028   -0.00025148
H    0.77859328   -0.10952772    1.81949004   -0.00045397   -0.00041265    0.00026988
H   -0.94822543   -0.06994004    1.85896755    0.00021474   -0.00008658   -0.00035490
H   -1.01578151    0.03207800   -0.52966254   -0.00005807    0.00006876    0.00013949
