     6
  Step:   120            Position(A)                                  Velocity(au)
C        -0.04188443     0.01102926     0.01816437     0.00006929     0.00002784    -0.00017828
N        -0.05594786    -0.01737003     1.31883704    -0.00006728    -0.00010342     0.00008231
H         0.78184851    -0.45099769    -0.62836513    -0.00040997    -0.00153352     0.00027488
H         0.80861077     0.17366359     1.88868916    -0.00041078     0.00191339    -0.00017910
H        -0.70879125    -0.70413789     1.76919084     0.00072193    -0.00094149     0.00025540
H        -0.81803963     0.42164049    -0.68093244     0.00020808     0.00166709     0.00062934
