12

C       -0.05362306     0.08333153    -0.01627416
N       -0.05219321    -0.09990862     1.34227048
H        0.90120770     0.20840429    -0.64373466
H        0.83100170    -0.36635275     1.84377040
H       -0.78787867     0.42976951     1.86679579
H       -0.79299316    -0.54620388    -0.63353414
C       -0.05417927     0.08363248    -0.01673695
N       -0.05224824    -0.09984056     1.34200189
H        0.90163298     0.21358533    -0.64044396
H        0.82728090    -0.37373693     1.84334732
H       -0.78272560     0.43549753     1.86965313
H       -0.78745814    -0.55426064    -0.63001214
