6

C       -0.04693265    -0.02939509    -0.10632760
N       -0.04808758    -0.12246146     1.41710366
H        0.81992698     0.61760575    -0.43476220
H        0.85167596     0.01128756     1.94826986
H       -0.69357489     0.65249586     1.68854675
H       -0.96348710     0.10088388    -0.73559027
