6

C       -0.03108559     0.05655809     0.01477773
N       -0.05296009    -0.02047965     1.31677652
H        0.65340534    -0.68017319    -0.52607645
H        0.80783887     0.10658680     1.91194129
H       -0.69239446    -0.75446987     1.72245560
H       -0.87540724     0.26891723    -0.69076021
