6

C   -0.03801450    0.02738661    0.01104590   -0.00007438    0.00006386    0.00007845
N   -0.03647267   -0.06066060    1.30485137   -0.00012375   -0.00011565   -0.00002513
H    0.94051406   -0.04705317   -0.55533983    0.00014686   -0.00000069   -0.00010050
H    0.80496777   -0.10725022    1.86043696    0.00051948    0.00045239   -0.00013418
H   -0.98737199   -0.04884815    1.84143176    0.00105529    0.00065988   -0.00058691
H   -1.01122790    0.04999411   -0.51878496    0.00088436   -0.00026541    0.00023593
