12

C       -0.05983409     0.08852833    -0.02105017
N       -0.03273670    -0.05290890     1.33850109
H        0.90865026     0.10255630    -0.61701956
H        0.66975559    -0.66225485     1.80143994
H       -0.88364654     0.24767468     1.90649856
H       -0.73979111    -0.67743885    -0.54834670
C       -0.06034637     0.08840770    -0.02113657
N       -0.03276162    -0.05327540     1.33802651
H        0.90852955     0.11033348    -0.61368966
H        0.66471471    -0.66656452     1.80175083
H       -0.87712805     0.25601285     1.90838545
H       -0.73469739    -0.68271412    -0.54625007
