6

C       -0.06034637     0.08840770    -0.02113657
N       -0.03276162    -0.05327540     1.33802651
H        0.90852955     0.11033348    -0.61368966
H        0.66471471    -0.66656452     1.80175083
H       -0.87712805     0.25601285     1.90838545
H       -0.73469739    -0.68271412    -0.54625007
