     6
  Step:   300            Position(A)                                  Velocity(au)
C        -0.03618728     0.00866582     0.01227024    -0.00003268     0.00001222     0.00005750
N        -0.04016687    -0.05051418     1.30152358     0.00007083    -0.00002105    -0.00004718
H        -0.00935611    -0.90370444    -0.57711903     0.00030753     0.00046335    -0.00022594
H        -0.26440337     0.75983783     1.88265262     0.00003782    -0.00009074     0.00011160
H         0.11159119    -0.90333470     1.83951820    -0.00068135     0.00013675     0.00042593
H        -0.06138602     0.97611000    -0.48563798    -0.00025893    -0.00036239    -0.00034109
