6

C       -0.05517302     0.01984675     0.01538233
N       -0.02713228    -0.05575582     1.30098222
H        0.16999634    -0.89504333    -0.52597859
H        0.08896341     0.77704184     1.89116116
H       -0.14530193    -0.98152685     1.72183220
H       -0.29211108     0.96807195    -0.45715114
