     6
  Step:   120            Position(A)                                  Velocity(au)
C        -0.03329758     0.06483507    -0.17237571     0.00006635     0.00007834     0.00029895
N        -0.04852014     0.00328302     1.48379141    -0.00004512    -0.00000574    -0.00024567
H         0.76874190    -0.59918222    -0.58048115    -0.00110205    -0.00166576     0.00076902
H         0.85358767    -0.22171314     1.93733189    -0.00009174     0.00122863     0.00002539
H        -0.76370790    -0.75286914     1.70231514     0.00114411    -0.00126265    -0.00074687
H        -1.00053503     0.08579279    -0.73237187    -0.00011388     0.00084611    -0.00019597
