6

C       -0.03293390    -0.02735889    -0.02212423
N       -0.04987768    -0.08069422     1.33909064
H        0.71740640     0.68415226    -0.49303591
H        0.75144446    -0.41511305     1.93287331
H       -0.67477769     0.60189349     1.82585410
H       -0.92144277    -0.09333536    -0.71848901
