6

C       -0.05815444     0.00884507     0.02107650
N       -0.02304776    -0.05434206     1.29397627
H        0.22859999     0.97580880    -0.41172917
H       -0.07304928    -0.94596010     1.78426843
H        0.01940406     0.81965228     1.84010673
H       -0.37464582    -0.86952414    -0.55330604
