     6
  Step:   120            Position(A)                                  Velocity(au)
C        -0.03476507     0.11555173    -0.01776959     0.00000336     0.00029488    -0.00021607
N        -0.04944644    -0.12193461     1.34852257     0.00001019    -0.00011548     0.00008046
H         0.86039494    -0.26943736    -0.65875826     0.00005610    -0.00079878     0.00049102
H         0.87299327     0.01286629     1.84793516    -0.00030675    -0.00019625    -0.00001790
H        -0.91878341     0.18577112     1.84028858    -0.00000350     0.00028412     0.00021457
H        -0.92615955    -0.28146527    -0.66522592     0.00007248    -0.00119817     0.00076893
