     6
  Step:   300            Position(A)                                  Velocity(au)
C        -0.03105065     0.01300039     0.03254882     0.00001772     0.00001903     0.00011144
N        -0.04692471    -0.05933549     1.28700311     0.00000224    -0.00000325    -0.00005893
H         0.87755286    -0.08875479    -0.56201100    -0.00018918    -0.00125008    -0.00001051
H         0.78724565    -0.01640976     1.88028712    -0.00001045     0.00127173    -0.00040306
H        -0.90993685    -0.06106418     1.84206519    -0.00016916    -0.00127868    -0.00021434
H        -0.94574892     0.16610656    -0.54082052     0.00012650     0.00107543     0.00011887
