14

C       -6.08390379    -0.81000777     0.13874199
C       -4.70793645    -0.57912220     0.20644717
H       -6.73144372    -0.29601544    -0.59782437
H       -6.57377216    -1.60801124     0.79175325
H       -4.03028474    -1.14985542     0.94005105
C       -3.81514766     0.38922096    -0.51396494
C       -2.54399263     0.44452274    -0.07895924
H       -4.23856426     1.26249046    -0.92413784
H       -2.10841242    -0.51462961     0.56414975
C       -1.87153749     1.61664048     0.08843674
H       -2.42061704     2.67634201     0.09384803
N       -0.51777745     1.83919454     0.36166736
H       -0.31013173     2.78270639     0.80849017
H        0.30701511     1.28367831     0.20939254
