6

C       -0.06530775     0.01316767     0.02127062
N       -0.00889470    -0.05456688     1.29707467
H        0.13911233     0.94585096    -0.50448331
H       -0.07887339    -0.93546997     1.81373236
H       -0.05150638     0.79659244     1.86389057
H       -0.31986599    -0.87536650    -0.55915545
