6

C       -0.03609138     0.01527796     0.03095710
N       -0.04356785    -0.05579255     1.28443478
H       -0.01765415    -0.88111829    -0.58236639
H       -0.19795862     0.75054259     1.90319083
H        0.08486812    -0.92611152     1.82447455
H       -0.04669214     0.98018222    -0.47112482
