     6
  Step:   120            Position(A)                                  Velocity(au)
C        -0.04566853     0.06517532     0.01857063    -0.00017911     0.00001272    -0.00010416
N        -0.03385419    -0.03096877     1.31313840     0.00008807    -0.00008996     0.00004291
H         0.83564683     0.12011817    -0.68253727     0.00041580     0.00144008     0.00056634
H         0.61230507    -0.72840469     1.75571884    -0.00067062    -0.00091525     0.00016897
H        -0.87319105     0.21077335     1.89676233     0.00050639     0.00174010    -0.00023104
H        -0.77305998    -0.61854703    -0.54702873     0.00065889    -0.00116635     0.00014062
