    14
  Step:   600            Position(A)                                  Velocity(au)
C        -5.75804622    -1.20892430    -0.34597684    -0.00025625     0.00030388     0.00021902
C        -4.89419715    -0.37616094     0.24362062     0.00029892    -0.00059484    -0.00058858
H        -6.30830983    -1.37708567    -1.29564877    -0.00340856    -0.00273544     0.00173330
H        -5.98007911    -2.04392861     0.27312237    -0.00002149    -0.00021264     0.00176378
H        -4.50260394    -0.59990383     1.23338064    -0.00002563    -0.00222101    -0.00132040
C        -3.95393187     0.67742589    -0.13621417    -0.00011097     0.00084734     0.00029767
C        -2.78154268     0.74138881     0.58172574    -0.00044473     0.00005743    -0.00021871
H        -4.26303191     1.42878433    -0.83352267     0.00035888    -0.00018272    -0.00001371
H        -2.78804326    -0.00665279     1.56355323     0.00195209     0.00091879    -0.00298805
C        -1.76858012     1.58513054     0.09378815     0.00021266    -0.00067622     0.00006765
H        -2.35703971     2.32342735    -0.62052533     0.00003047    -0.00076259    -0.00239449
N        -0.42768038     1.63380275    -0.00522704     0.00039183     0.00032249     0.00046519
H         0.02776682     2.34007113    -0.64792658    -0.00124126     0.00039247    -0.00175936
H         0.40771785     0.96493207     0.20812299     0.00048960     0.00106539     0.00117132
