6

C   -0.03496298    0.01369517    0.00310497   -0.00009234   -0.00011364    0.00008601
N   -0.04129974   -0.05863526    1.30681243   -0.00014523    0.00009334   -0.00003988
H    0.92600237    0.01755893   -0.54351028    0.00078768    0.00035340   -0.00057432
H    0.80699197   -0.11173710    1.88337109    0.00129412   -0.00032629    0.00065817
H   -0.94211195    0.00547230    1.84120179    0.00070689   -0.00039149   -0.00053995
H   -1.01328369    0.07055187   -0.48594567    0.00032970    0.00042135   -0.00001453
