6

C       -0.33253714     0.00389590     0.04499506
N        0.15400910    -0.05477095     1.27440754
H        0.62620281    -0.62911640    -0.65260849
H        0.43273501    -1.02605214     1.64246158
H        0.09414436     0.63099087     1.96497510
H       -0.54344437     1.06889209    -0.30880620
