     6
  Step:   120            Position(A)                                  Velocity(au)
C        -0.03496031    -0.03789794    -0.01661116    -0.00010984     0.00001602     0.00054414
N        -0.04299126    -0.10212591     1.33696848     0.00005697     0.00007858    -0.00047448
H         0.83540825    -0.01804245    -0.72507633    -0.00021174    -0.00132408     0.00033199
H         0.65758037     0.55217540     1.76022651    -0.00059291     0.00088072    -0.00007315
H        -0.93393157    -0.08643549     1.90484982     0.00037709    -0.00152639    -0.00059075
H        -0.75798762     0.75332376    -0.42900541     0.00094473     0.00068690     0.00044147
