14

C       -5.65021985    -0.89592431     0.55268839
C       -5.01821044     0.13416663    -0.00060291
H       -5.28069792    -1.88730666     0.61763583
H       -6.59642719    -0.55134270     1.00289161
H       -5.53542036     1.04202476     0.22342079
C       -3.84771130     0.20498190    -0.77245666
C       -2.56745309     0.71510112    -0.59134366
H       -4.01649395    -0.27251941    -1.77942515
H       -2.07165929     1.31568341    -1.48306514
C       -1.60012348     0.84821075     0.45616298
H       -1.45892383    -0.18931760     1.14161317
N       -0.81102059     1.90714803     0.59264894
H       -0.13057465     1.97630218     1.35153498
H       -0.97675315     2.71108880    -0.05937217
