12

C       -0.03264743     0.06657642    -0.19888801
N       -0.03634855     0.01751449     1.51122313
H        0.94408564    -0.12515448    -0.67193583
H        0.63271041    -0.80193829     1.66428071
H       -0.93679381    -0.34295831     1.85303804
H       -0.95878890    -0.43644845    -0.58387293
C       -0.03261573     0.06639068    -0.19809687
N       -0.03615778     0.01754962     1.51059348
H        0.94603465    -0.11829939    -0.67227235
H        0.62754587    -0.80685747     1.65812384
H       -0.93829635    -0.33698496     1.85463000
H       -0.95709967    -0.44263253    -0.57964892
