6

C       -0.03945047     0.04064260    -0.14034233
N       -0.03120531    -0.01945596     1.44592067
H        0.89066483     0.31147105    -0.66602751
H        0.57273657    -0.82753364     1.79469934
H       -0.89476388     0.14209619     1.99796098
H       -0.87785460    -0.50976194    -0.65530755
