     6
  Step:   120            Position(A)                                  Velocity(au)
C        -0.04457302    -0.01788031    -0.03728165    -0.00006697     0.00001826     0.00059798
N        -0.03102352    -0.09149341     1.35205102     0.00007802     0.00003742    -0.00051507
H         0.80922263    -0.27175820    -0.71704690    -0.00066560    -0.00152301     0.00042546
H         0.54957095     0.65280159     1.81627957    -0.00139537     0.00117023    -0.00047684
H        -0.88643600    -0.32792529     1.93575015     0.00058700    -0.00143260    -0.00042656
H        -0.72304917     0.76158135    -0.48727597     0.00118779     0.00104777     0.00050997
