     6
  Step:   120            Position(A)                                  Velocity(au)
C        -0.03365686    -0.00532317     0.01095476     0.00004416    -0.00002128     0.00028070
N        -0.04551024    -0.06041781     1.31540013    -0.00004674     0.00004380    -0.00028577
H         0.74993830     0.55157608    -0.59284490    -0.00071411     0.00123446     0.00063355
H         0.68110223    -0.54659710     1.89197660    -0.00059264    -0.00135261    -0.00034661
H        -0.74256869     0.48943357     1.89156938     0.00097675     0.00107749    -0.00026108
H        -0.86793155    -0.26117462    -0.70845178     0.00045329    -0.00131454     0.00060048
