14

C       -5.99545646    -1.03925935    -0.01862010
C       -4.74601428    -0.60269062    -0.02886792
H       -6.91487442    -0.38669176    -0.04015994
H       -6.14870093    -2.07504028     0.16948606
H       -3.96571096    -1.37226482    -0.09162090
C       -4.04578523     0.75307306     0.09450725
C       -2.68490110     0.47100876     0.09833425
H       -4.54748238     1.72067539    -0.20167400
H       -2.57076515    -0.62271380    -0.08275782
C       -1.68590206     1.52672542     0.28701574
H       -1.96444159     2.47824785     0.72659997
N       -0.40472439     1.82254910    -0.00784925
H       -0.16592900     2.78999953     0.31325869
H        0.21758252     1.56906944    -0.82202991
