     6
  Step:   300            Position(A)                                  Velocity(au)
C        -0.04400336     0.00789862     0.02743288     0.00001382    -0.00002843     0.00001125
N        -0.03171398    -0.04881691     1.29417215    -0.00000432     0.00001099    -0.00001627
H         0.11537665    -0.88373845    -0.60043158     0.00129094     0.00008807     0.00042990
H        -0.02115628     0.77760242     1.89522850     0.00146981     0.00019454    -0.00036012
H        -0.15710212    -0.92794133     1.81291872    -0.00145760    -0.00002645    -0.00059632
H        -0.18497527     0.94855251    -0.52681105    -0.00140779    -0.00007021     0.00061864
