6

C       -0.00111231     0.04902191    -0.07351809
N       -0.07263615    -0.16552583     1.41014067
H        0.16843954    -0.80120361    -0.71395463
H       -1.20849226     0.08899057     1.18910973
H        0.59990171     0.49494958     1.97713257
H        0.25025004     1.26395046    -0.28015644
