6

C       -0.03560174     0.00696073     0.02786879
N       -0.03905563    -0.05082329     1.28711408
H        0.06137491    -0.89044409    -0.59072626
H       -0.20373447     0.77921150     1.88453450
H        0.00472316    -0.91996245     1.83051202
H       -0.10833870     0.98473895    -0.45056519
