6

C       -0.03445568     0.02120007     0.02609214
N       -0.04843641    -0.06188140     1.29278770
H        0.23389340     0.96236008    -0.45035295
H        0.05540956    -0.96046679     1.76402849
H       -0.09872076     0.78074084     1.87296096
H       -0.31986523    -0.84510219    -0.57054095
