     6
  Step:   120            Position(A)                                  Velocity(au)
C        -0.03134308     0.07590897    -0.21228439    -0.00001110     0.00005610     0.00000650
N        -0.03943200     0.01676976     1.51944001    -0.00002943     0.00000664     0.00003012
H         0.91095166    -0.31583245    -0.66078821     0.00071303     0.00032968    -0.00010870
H         0.70003821    -0.71358909     1.71949549    -0.00033304    -0.00085780    -0.00111702
H        -0.93308581    -0.38677812     1.82632205     0.00004984     0.00088115    -0.00009353
H        -0.96939252    -0.39116035    -0.57807842     0.00011145    -0.00111371     0.00082314
