     6
  Step:   120            Position(A)                                  Velocity(au)
C        -0.04006371    -0.05383954     0.00785532     0.00001273    -0.00004650     0.00024360
N        -0.04169566    -0.10105495     1.31810819     0.00002613     0.00016299    -0.00029391
H         0.80558621     0.47319848    -0.55737424    -0.00113737    -0.00000089     0.00059743
H         0.81164697     0.15902339     1.85050205     0.00005230    -0.00098401    -0.00033587
H        -0.89297137     0.29710944     1.76565017    -0.00061143    -0.00031110     0.00030566
H        -0.88037679     0.44674933    -0.57722987     0.00118161    -0.00041492     0.00061423
