6

C       -0.02122571     0.00098172    -0.02200717
N       -0.04813995    -0.03755138     1.33482948
H        0.87396674     0.06959899    -0.63355943
H        0.76733451    -0.18259490     1.88045010
H       -0.90729578    -0.12480721     1.91984775
H       -1.02505064     0.07814769    -0.56171784
