     6
  Step:   120            Position(A)                                  Velocity(au)
C        -0.03010205     0.05102766    -0.22363403    -0.00000301     0.00024851     0.00002436
N        -0.03800130     0.00425897     1.52221617    -0.00002882     0.00011147    -0.00001343
H         0.93382274    -0.14460174    -0.72094953     0.00014535    -0.00066686    -0.00007720
H         0.71534432    -0.67559014     1.86931928    -0.00043309    -0.00177315    -0.00065349
H        -0.95352194    -0.24476499     1.88909165     0.00031184     0.00004728    -0.00009106
H        -1.02177896    -0.27206092    -0.63381240     0.00041222    -0.00211766     0.00071810
