6

C       -0.01756171    -0.08045116    -0.03041638
N       -0.03616080    -0.01818921     1.33968754
H        0.70161154     0.68857172    -0.48870463
H        0.68486547    -0.55674057     1.85107545
H       -0.90501082     0.25512602     1.88756934
H       -0.98263814     0.15466310    -0.61220793
