14

C   -6.02223917   -0.92963933   -0.01046558    0.00011641    0.00012582    0.00002886
C   -4.64222185   -0.65636476    0.13041250    0.00020160    0.00012530   -0.00011270
H   -6.64874764   -0.15138392   -0.51707853    0.00035352   -0.00058646   -0.00022892
H   -6.59479147   -1.84544130    0.37184387   -0.00007562   -0.00015218   -0.00018336
H   -4.03621106   -1.46871732    0.60008421   -0.00022261   -0.00011581    0.00081127
C   -3.98200373    0.55800422   -0.17794180    0.00006044   -0.00006873    0.00001686
C   -2.60201730    0.61090081    0.14259679   -0.00005659    0.00005746    0.00014365
H   -4.49231999    1.40656987   -0.70505136   -0.00056073   -0.00038504    0.00033466
H   -2.16998851   -0.20357154    0.71997418   -0.00016118    0.00019000    0.00005686
C   -1.75506721    1.72767059   -0.09678576    0.00024756    0.00002697   -0.00010064
H   -2.14566600    2.64137142   -0.52766828   -0.00039122    0.00059640    0.00034167
N   -0.54454190    1.67990099    0.30802022   -0.00036476   -0.00016742    0.00003098
H    0.18159577    2.43617324    0.19623821   -0.00009543   -0.00017711   -0.00004123
H   -0.05271449    0.86454207    0.74025788   -0.00056311   -0.00022277   -0.00123593
