6

C       -0.04013188     0.01228913     0.01337342
N       -0.04217382    -0.05415480     1.30114057
H        0.06670482     0.97549961    -0.47574203
H       -0.19713049    -0.91792035     1.82647985
H        0.13700899     0.75893485     1.89761648
H       -0.15522453    -0.88016161    -0.59679511
