6

C       -0.05246671    -0.05206868     0.00626474
N       -0.03577761    -0.07009546     1.31727868
H        0.85583818     0.03648788    -0.67474722
H        0.72121658     0.42934926     1.83263640
H       -0.91387690    -0.25617705     1.85811733
H       -0.75374549     0.71507943    -0.50397698
