6

C   -0.04369972    0.00428967    0.01600342   -0.00005209   -0.00007401    0.00035102
N   -0.03971919   -0.04765359    1.29604374    0.00018238   -0.00004698   -0.00027976
H    0.93356829    0.05569535   -0.52010554    0.00037240    0.00024995   -0.00045704
H    0.84042850   -0.15033721    1.93159225   -0.00180648    0.00064840   -0.00048035
H   -0.91072483   -0.07002252    1.80776798   -0.00055418    0.00012388    0.00058207
H   -1.00352943    0.10598145   -0.52819059    0.00007448    0.00051261    0.00006029
