6

C       -0.03909278    -0.01367794    -0.22838347
N       -0.04704367    -0.13895954     1.52036517
H        0.93646734     0.33172471    -0.62491978
H        0.82163378     0.27943920     1.90127192
H       -0.87291741     0.43217773     1.87677239
H       -0.97854811     0.38089948    -0.66717959
