6

C       -0.02861388     0.06710156    -0.18418862
N       -0.04100223     0.01589387     1.49980020
H        0.92331140    -0.12100714    -0.70112620
H        0.65046335    -0.79887568     1.62545456
H       -0.94438715    -0.31474142     1.87072260
H       -0.93157956    -0.45560054    -0.54994262
