    14
  Step:   600            Position(A)                                  Velocity(au)
C        -5.61869280    -0.99436565     0.10910284     0.00020027     0.00066603    -0.00028357
C        -4.91707590     0.13444675     0.48089526     0.00027913    -0.00016277     0.00037076
H        -5.50195119    -1.23282368    -0.93136498     0.00139707    -0.00036958     0.00078684
H        -6.23518348    -1.54273423     0.83359700    -0.00115371     0.00022141    -0.00299376
H        -4.60944132     0.60790547     1.44740572    -0.00000052    -0.00098828    -0.00120569
C        -3.88119586     0.21175045    -0.60159639    -0.00000239    -0.00041947    -0.00013316
C        -2.62194364     0.62947752    -0.58648630     0.00036170    -0.00006936     0.00040550
H        -4.42397622     0.18016219    -1.57417071     0.00134052    -0.00201089     0.00242313
H        -1.98292247     0.86606340    -1.51076357    -0.00156026     0.00078918     0.00226287
C        -1.85134449     1.15852044     0.56089822    -0.00002103     0.00119125    -0.00021497
H        -2.24307693     1.31680000     1.60138016     0.00149192    -0.00060599     0.00149941
N        -0.67675405     1.78739154     0.36157898    -0.00059859    -0.00081791    -0.00024771
H        -0.33558703     2.40339660     1.08408058     0.00066711    -0.00235499     0.00064328
H        -0.13978437     1.62114581    -0.51781823    -0.00360743     0.00231815    -0.00169642
