    14
  Step:   600            Position(A)                                  Velocity(au)
C        -5.78294997    -1.19984404    -0.34755646    -0.00025022     0.00028777     0.00025781
C        -4.88779406    -0.39954962     0.23403629     0.00025640    -0.00054514    -0.00069626
H        -6.31852207    -1.36423102    -1.31771808    -0.00342945    -0.00272437     0.00165690
H        -6.06147920    -2.03132751     0.26941574    -0.00021898    -0.00018909     0.00201405
H        -4.49373575    -0.64353877     1.22125516     0.00000078    -0.00220882    -0.00117418
C        -3.95684692     0.66947307    -0.12806023     0.00001713     0.00083220     0.00046457
C        -2.78254000     0.76119058     0.59549417    -0.00052663     0.00003015    -0.00033779
H        -4.23232730     1.34667418    -0.93048505     0.00057295    -0.00039987    -0.00060452
H        -2.75174267    -0.00767989     1.59176719     0.00179020     0.00050163    -0.00295429
C        -1.75585030     1.58747869     0.09939921     0.00019674    -0.00065613     0.00011276
H        -2.34786243     2.33000895    -0.60043961     0.00021933    -0.00080368    -0.00201157
N        -0.41602154     1.64513500    -0.00752330     0.00040990     0.00035042     0.00041110
H         0.01491890     2.30765947    -0.71398280    -0.00144812     0.00043689    -0.00193279
H         0.38050700     0.93592400     0.19758775     0.00047026     0.00112731     0.00166400
