6

C   -0.04051991    0.02828272   -0.00110314    0.00008970   -0.00005942   -0.00015289
N   -0.04115399   -0.05703346    1.30957321    0.00015653    0.00012473    0.00011669
H    0.91971202   -0.06759477   -0.47677965   -0.00059879    0.00026850    0.00047568
H    0.82765777   -0.13057207    1.87593583   -0.00088508   -0.00070580   -0.00123537
H   -0.90477865   -0.06511543    1.86030895   -0.00160865   -0.00051099    0.00106390
H   -1.00080093    0.04904250   -0.55256882   -0.00015147   -0.00007693   -0.00010396
