6

C       -0.08452556    -0.08765486    -0.26141369
N        0.01120397    -0.05529643     1.49803129
H       -0.66001121    -0.32744272    -0.93258412
H       -0.38261388     0.91015858     1.99384482
H        0.46280079    -0.40013431     2.45350143
H        0.21843418     0.96089735    -0.32465081
