6

C       -0.05905134     0.01159902     0.01387614
N       -0.02133735    -0.05676747     1.30292304
H        0.26378471     0.94390711    -0.44420975
H       -0.01886993    -0.95107882     1.80670815
H       -0.03733248     0.82644834     1.81802508
H       -0.42032512    -0.83843047    -0.55971876
