     6
  Step:   120            Position(A)                                  Velocity(au)
C        -0.00820996     0.12511770    -0.02046217     0.00008696     0.00005303    -0.00005461
N        -0.04184363    -0.10647568     1.33791457     0.00005918    -0.00003867    -0.00004124
H         0.64150969    -0.65709494    -0.55222404    -0.00074272    -0.00095143     0.00056485
H         0.77711758     0.26482373     1.87534340    -0.00096563     0.00098530     0.00012777
H        -0.95859798    -0.22952609     1.83232903     0.00007968    -0.00086679     0.00005626
H        -0.99367219    -0.05926054    -0.61170428    -0.00023006     0.00073848     0.00047489
