14

C   -6.05907504   -0.77071797   -0.11027319    0.00000941   -0.00006974    0.00006428
C   -4.69965812   -0.71470538    0.12108341   -0.00011486   -0.00008570    0.00003661
H   -6.59932735    0.06222758   -0.52535580    0.00023336   -0.00037163   -0.00026594
H   -6.44209039   -1.77149489   -0.02440094    0.00097613    0.00048858   -0.00047875
H   -4.29760872   -1.66093322    0.47759210    0.00029798   -0.00042530    0.00009646
C   -3.91526856    0.43329300   -0.04174779   -0.00003381    0.00013734   -0.00006734
C   -2.54683195    0.49180456    0.18282224    0.00007393    0.00024459    0.00004111
H   -4.38120651    1.36411232   -0.33222328   -0.00049202    0.00050022    0.00044657
H   -1.95428112   -0.44337978    0.49027650    0.00098161   -0.00052690   -0.00006483
C   -1.79611467    1.69723159    0.02000986   -0.00018248   -0.00003294   -0.00019801
H   -2.38337960    2.55492549   -0.25661052   -0.00058314    0.00061777    0.00025359
N   -0.53211542    1.82350435    0.21308172    0.00011807   -0.00012581    0.00006037
H    0.00406693    2.67638777    0.00370202    0.00027603    0.00065823    0.00005596
H    0.08196450    0.97154297    0.17142991   -0.00037795   -0.00149904    0.00058787
