     6
  Step:   300            Position(A)                                  Velocity(au)
C        -0.03801280     0.00993631     0.02458274     0.00000293     0.00001228    -0.00015772
N        -0.04323518    -0.05061526     1.29166706     0.00000178     0.00000054     0.00016551
H        -0.00010430     0.96022502    -0.49448867    -0.00079656    -0.00011839    -0.00009757
H        -0.33887189    -0.87068380     1.82620387    -0.00080835     0.00028685    -0.00006881
H         0.25116609     0.70911878     1.90517310     0.00077075    -0.00039105    -0.00015422
H        -0.07137530    -0.88346503    -0.58722425     0.00077447     0.00006884    -0.00009998
