     6
  Step:   600            Position(A)                                  Velocity(au)
C        -0.12159805    -0.07450707     0.06847715     0.00045000     0.00102541     0.00154805
N         0.01799635     0.03297335     1.22475590    -0.00033174    -0.00020608    -0.00111079
H        -0.05631350     0.96228058    -0.41844909     0.00320129     0.00031769    -0.00460189
H         0.15678900    -0.98006656     1.83670405     0.00699534    -0.00400688     0.00174487
H        -0.16497811     0.80787247     1.96940166    -0.00491597    -0.00182851    -0.00252081
H         0.05045009    -1.03023206    -0.33137657    -0.00603293    -0.00383735     0.00236710
