14

C       -5.78482957    -0.57955771     0.53297628
C       -4.79673693    -0.75413039    -0.32417274
H       -5.77654907     0.30377530     1.19234275
H       -6.67665805    -1.19841645     0.50154110
H       -4.93010270    -1.48103681    -1.05103057
C       -3.82557189     0.27586890    -0.16333642
C       -2.46602873     0.58432423    -0.44480475
H       -4.00640369     0.84712985     0.71205426
H       -1.80172486    -0.15796183    -0.91212271
C       -1.94620359     1.75557320     0.00250155
H       -2.36652832     2.83035671     0.23523562
N       -0.68404917     1.66304054     0.55216930
H       -0.04481367     2.45911257     0.72528759
H       -0.61237029     0.65043240     0.66587616
