     6
  Step:   300            Position(A)                                  Velocity(au)
C        -0.04297685     0.01025310     0.01134828    -0.00000328     0.00001901     0.00005235
N        -0.04020010    -0.05612594     1.30220225    -0.00000543    -0.00004727    -0.00003179
H         0.89871827    -0.04024144    -0.53503528    -0.00022497     0.00065722    -0.00016575
H         0.82646912    -0.01529491     1.84869941    -0.00009651    -0.00048897     0.00008917
H        -0.88612301    -0.08576849     1.87397475     0.00017987     0.00092039     0.00027720
H        -0.98125998     0.12929675    -0.52667286     0.00025613    -0.00065828    -0.00038268
