14

C       -5.97216916    -0.68595597     0.01120628
C       -4.65014774    -0.81200652    -0.04104659
H       -6.29041828     0.26135113     0.51710061
H       -6.65701666    -1.34178720    -0.37679398
H       -4.04260284    -1.66533666    -0.18342624
C       -3.89232948     0.32319741     0.08177272
C       -2.63151828     0.70523086     0.29357610
H       -4.34189913     1.12949062    -0.42420890
H       -2.17195111    -0.12614223     0.81243280
C       -1.66953773     1.49427901    -0.36726577
H       -1.59329265     1.56829408    -1.45266909
N       -0.71827111     1.89023605     0.35403728
H        0.28873466     2.09229000     0.12010852
H       -0.97488373     2.24407024     1.34001634
