     6
  Step:   600            Position(A)                                  Velocity(au)
C        -0.10084206    -0.17241478    -0.22798607     0.00008412     0.00010179     0.00097373
N         0.06622949     0.14617989     1.53788919     0.00014281     0.00029958    -0.00087305
H         0.63092985     0.55422652    -0.73912867     0.00198354     0.00083263     0.00219154
H         0.00914900    -0.75107283     2.20984061    -0.00200393    -0.00219911    -0.00551716
H        -0.77650722     0.72542740     1.54787450    -0.00125793    -0.00191031     0.00119815
H        -0.79487292    -1.17497937    -0.78047672    -0.00170846    -0.00209919     0.00265670
