6

C       -0.04263830     0.01637455     0.02139089
N       -0.03767363    -0.05673247     1.29523561
H        0.05025622    -0.87218749    -0.59504377
H       -0.09456821     0.76414574     1.90600193
H       -0.00637469    -0.93630694     1.81783188
H       -0.13062589     0.96783486    -0.49069592
