14

C   -5.95240046   -0.81804365   -0.13492060    0.00014892   -0.00022807   -0.00028736
C   -4.65969687   -0.75606488    0.11076724    0.00013377    0.00036857    0.00000152
H   -6.56952896   -0.02418011   -0.47004643   -0.00096266   -0.00026554    0.00102733
H   -6.52169530   -1.74791594   -0.01034978    0.00089267    0.00015674    0.00067525
H   -4.11353946   -1.70726572    0.39761121    0.00068173   -0.00033782   -0.00022293
C   -3.97542904    0.51845134   -0.02160544   -0.00017717   -0.00000782    0.00039692
C   -2.63308831    0.58665321    0.19633416   -0.00008927    0.00047651   -0.00026239
H   -4.64366337    1.38953337   -0.23988999   -0.00086002   -0.00028716   -0.00002086
H   -2.05603158   -0.31143669    0.50975726   -0.00082232   -0.00132409    0.00068445
C   -1.83569148    1.77032246    0.02175085    0.00050553   -0.00027767   -0.00005676
H   -2.22845261    2.83871571   -0.10082361    0.00029151   -0.00054814   -0.00010926
N   -0.48756690    1.67970066    0.15802348   -0.00020892   -0.00006426    0.00010471
H    0.05859993    2.49542316    0.16643705   -0.00081967    0.00026711   -0.00093916
H   -0.04762390    0.85971270    0.51168164   -0.00171544   -0.00071854   -0.00007067
