6

C       -0.04225997     0.01080002     0.02986644
N       -0.04120815    -0.04579852     1.29022043
H        0.88240220    -0.05092490    -0.54243853
H        0.81650458    -0.05376792     1.84748461
H       -0.88253482    -0.19698065     1.86060395
H       -0.95309811     0.13962789    -0.55883984
