6

C   -0.03974911    0.00482582    0.03712761    0.00016167    0.00009166    0.00007077
N   -0.03784734   -0.03467151    1.28288428    0.00021174    0.00003034   -0.00007310
H    0.89544148    0.00295079   -0.52911318   -0.00148529   -0.00054232    0.00037179
H    0.79149327   -0.18915315    1.85060478   -0.00088565    0.00001087   -0.00072955
H   -0.94068593   -0.16821087    1.81223772   -0.00215451   -0.00057754    0.00067469
H   -0.95959402    0.10893729   -0.51151383   -0.00034337   -0.00040481   -0.00014437
