     6
  Step:   600            Position(A)                                  Velocity(au)
C        -0.29541779    -0.19397826    -0.01558946    -0.00099919     0.00011768     0.00002010
N         0.17412279     0.16647159     1.36537871     0.00040794     0.00047301    -0.00042383
H        -1.23400638     0.20597632    -1.02906614     0.00406854    -0.00156481     0.00186754
H         0.73328821     1.02467263     1.65941661     0.00135205     0.00159411     0.00595351
H         0.97808260    -0.65205140     1.54782879    -0.00435052    -0.00427435    -0.00215067
H        -0.58940052    -1.25028204    -0.07334904     0.00516747    -0.00373045    -0.00002004
