14

C       -5.60612767    -1.07108544     0.57400750
C       -4.86334345    -0.57176220    -0.38510005
H       -5.57608530    -0.54649083     1.48950525
H       -6.21914577    -1.95647068     0.47958641
H       -4.85455073    -0.92506086    -1.43711335
C       -4.04577780     0.73052277    -0.30401514
C       -2.64106207     0.56947861    -0.14047155
H       -4.51063211     1.75370043    -0.31968954
H       -2.11073535    -0.40727074     0.04144268
C       -1.70685544     1.70210671    -0.15078378
H       -1.88953736     2.57163130    -0.67815648
N       -0.67978097     1.61965969     0.60789701
H       -0.02499476     2.33264206     0.40454712
H       -0.56588761     1.11334821     1.42923482
