6

C   -0.02978102   -0.00345899    0.04461564    0.00017231   -0.00008105    0.00001105
N   -0.03765376   -0.03605830    1.27945496    0.00001041    0.00008639   -0.00014040
H    0.87548178    0.07865955   -0.56903071   -0.00106413    0.00008691    0.00052328
H    0.77160961   -0.15238889    1.81425651   -0.00046018   -0.00015897   -0.00019257
H   -0.98246992   -0.19287898    1.82893874   -0.00063320   -0.00053426    0.00106214
H   -0.99943750    0.13912628   -0.49352179   -0.00004043    0.00037158    0.00042661
