     6
  Step:   300            Position(A)                                  Velocity(au)
C        -0.01219640     0.01488870     0.01564967    -0.00003746     0.00007799     0.00004358
N        -0.06616864    -0.04902304     1.30138778     0.00016938    -0.00000168    -0.00004435
H         0.31144201     0.92968989    -0.47138297     0.00013799    -0.00023841    -0.00036596
H        -0.04048392    -0.98661881     1.71414796    -0.00072418    -0.00016923    -0.00029349
H        -0.13244778     0.77758711     1.90368562    -0.00112016    -0.00028097     0.00004143
H        -0.28661202    -0.88661724    -0.52543280    -0.00020104    -0.00021748     0.00071501
