     6
  Step:   300            Position(A)                                  Velocity(au)
C        -0.02847691     0.02355664     0.01572916    -0.00003097     0.00007441    -0.00002091
N        -0.05354573    -0.06750265     1.29866694     0.00000342    -0.00011552     0.00001990
H         0.92089840    -0.06971778    -0.50354776    -0.00016651     0.00003426     0.00003119
H         0.80340758     0.01130496     1.84915718    -0.00001775     0.00032428     0.00007592
H        -0.90588379    -0.11584374     1.86036165     0.00016346     0.00064113     0.00034048
H        -0.94793093     0.16180158    -0.54810987     0.00034230    -0.00028100    -0.00047497
