6

C       -0.03766595     0.04344063    -0.11970979
N       -0.04319762    -0.05081576     1.42228910
H        0.87595269     0.32542713    -0.70282335
H        0.68193099    -0.64461233     1.88643726
H       -0.84800440     0.32706597     2.00987827
H       -0.87369845    -0.48916442    -0.63961753
