14

C   -5.97729096   -0.91332847   -0.10705146    0.00004820    0.00010161    0.00013953
C   -4.63262098   -0.71774806    0.15315883   -0.00036787   -0.00012004   -0.00015872
H   -6.55952471   -0.09597939   -0.54741522   -0.00027269   -0.00187393   -0.00006191
H   -6.45431873   -1.90386518   -0.04479859    0.00117495   -0.00042453    0.00033163
H   -3.98507925   -1.53540392    0.55050121    0.00030773   -0.00047831   -0.00003644
C   -4.00081345    0.56852596   -0.03905269    0.00014704    0.00006492   -0.00001953
C   -2.63814985    0.65663172    0.13899489    0.00009832    0.00022455    0.00008626
H   -4.51984902    1.50328640   -0.37885196   -0.00016569    0.00135217   -0.00096994
H   -2.13750135   -0.22845011    0.52758337   -0.00005070   -0.00031140   -0.00051865
C   -1.81544807    1.78764154    0.01079686   -0.00051157    0.00002261   -0.00003938
H   -2.12143120    2.88304636   -0.22568335    0.00031587    0.00023268    0.00024298
N   -0.50165414    1.61379500    0.17327251    0.00039934   -0.00012173    0.00010072
H    0.16193973    2.40193076    0.26394937   -0.00003185   -0.00049879   -0.00029999
H   -0.21487568    0.72576974    0.59164446    0.00015432    0.00019464   -0.00018451
