14

C       -5.18286997    -0.72005394     0.74201526
C       -4.54851530     0.35776876     0.24760673
H       -5.08483439    -1.80570666     0.39081848
H       -5.89172660    -0.58496682     1.54624918
H       -4.53417534     1.43069919     0.50915909
C       -3.68385101     0.32202402    -1.05861618
C       -2.35965218     0.39779162    -0.84062824
H       -4.14005302     0.54586666    -2.06960701
H       -1.79513075     0.69038683    -1.84315985
C       -2.18246968     0.73033952     0.52481113
H       -2.57552868     0.19473096     1.42747134
N       -1.40810566     1.78633118     0.60859750
H       -1.49927528     2.35548919     1.44255894
H       -0.90389290     2.02831026    -0.26161234
