6

C        0.13783055     0.00461431     0.06845960
N       -0.18693654     0.04968713     1.24847215
H       -0.93086221    -0.04894756    -0.77166595
H       -1.12514509    -0.26633383     1.78522057
H        0.73307558    -0.12706280     2.20500290
H        1.06520098    -0.97212084    -0.49152546
