    14
  Step: 50000            Position(A)                                  Velocity(au)
C        -5.98938866    -0.82594424    -0.07757423    -0.00021897     0.00003970    -0.00036491
C        -4.65641680    -0.73373975     0.16118332     0.00010898     0.00014334     0.00008584
H        -6.48478474     0.11359553    -0.28769518    -0.00080200    -0.00055540     0.00074787
H        -6.60107960    -1.72095491     0.21326757     0.00002771     0.00002123     0.00002533
H        -4.06499532    -1.57080469     0.56387047     0.00091618    -0.00010095     0.00015492
C        -3.95164181     0.46573051    -0.13429856     0.00011167    -0.00020386     0.00029938
C        -2.59915676     0.60318459     0.10840251    -0.00011511    -0.00014965     0.00010444
H        -4.43007007     1.36490207    -0.52746514    -0.00047582     0.00026480     0.00048357
H        -2.03209522    -0.15442707     0.58843688    -0.00028818     0.00013832    -0.00042513
C        -1.80323516     1.76087279    -0.02756034     0.00035296     0.00017585    -0.00014174
H        -2.25298023     2.62585769    -0.47634372     0.00084434    -0.00053782     0.00059684
N        -0.53790792     1.69710119     0.27066221    -0.00014827     0.00004257    -0.00015525
H         0.10356290     2.54191900     0.14254526    -0.00073957    -0.00019161    -0.00017114
H        -0.33279915     0.72264975     0.67663998    -0.00027647     0.00030573     0.00094757
