6

C       -0.06220717    -0.07884546    -0.02934798
N       -0.04943455     0.00345023     1.34765829
H        0.91543556    -0.00171408    -0.62588801
H        0.87321048     0.00274662     1.85105773
H       -0.83792097    -0.48732840     1.82036911
H       -0.73543049     0.70810486    -0.53131072
