14

C       -6.10368951    -0.53877419    -0.01813415
C       -4.71073010    -0.86138828     0.01344102
H       -6.29448230     0.43051231     0.05704270
H       -6.71867666    -1.50208935    -0.06628579
H       -4.11947941    -1.93094489    -0.06213517
C       -3.85565482     0.33511919    -0.07579012
C       -2.44563716     0.29630413     0.19392027
H       -4.31386332     1.38733181    -0.28483697
H       -1.89605208    -0.59443655     0.47188858
C       -1.85120986     1.72627045     0.07739146
H       -2.38934988     2.58836952    -0.11615715
N       -0.57663915     1.92026572     0.14429734
H       -0.15852347     2.86466268    -0.05326667
H       -0.05748856     1.30332976     0.78922455
