     6
  Step:   300            Position(A)                                  Velocity(au)
C        -0.04074401     0.01444772     0.02640419     0.00001048    -0.00000068    -0.00020156
N        -0.04247234    -0.05390714     1.29317562    -0.00001756     0.00000388     0.00015633
H         0.21063560    -0.85966193    -0.56492700     0.00053172    -0.00009628     0.00044567
H         0.07758216     0.77222317     1.87397986     0.00065127     0.00019772    -0.00029439
H        -0.13931722    -0.95090792     1.77389669    -0.00049858    -0.00020486    -0.00041765
H        -0.28610330     0.94552319    -0.47596543    -0.00056528     0.00005763     0.00049576
