     6
  Step:   300            Position(A)                                  Velocity(au)
C        -0.04903212     0.02122116     0.02925015     0.00000393    -0.00002629    -0.00009394
N        -0.05617592    -0.05129796     1.28752089    -0.00006340    -0.00006650     0.00010547
H        -0.07919121    -0.92763179    -0.50634051    -0.00163033     0.00036039    -0.00060976
H         0.11599901     0.70907452     1.95207503    -0.00123285     0.00017658     0.00026108
H         0.21737655    -0.93457740     1.75690211     0.00209664     0.00080268     0.00011964
H        -0.10220298     0.94334466    -0.55097462     0.00160074    -0.00010225    -0.00011717
