6

C       -0.04021362    -0.03304775    -0.01676575
N       -0.05145636    -0.10798795     1.33497601
H        0.70490748     0.74901730    -0.37811705
H        0.81598531    -0.22832744     1.91571349
H       -0.61526067     0.70354292     1.71567257
H       -0.92433201     0.00042126    -0.71275130
