14

C       -4.46392409    -0.73116132    -0.96070031
C       -4.73470352    -0.34165886     0.30235556
H       -4.09912379     0.19606298    -1.55946975
H       -4.80168204    -1.58646192    -1.46037536
H       -5.16551657    -0.68704772     1.21103649
C       -4.31202362     1.04598517     0.66142565
C       -3.02389211     1.55422474     0.74122144
H       -4.93669767     1.55556917     1.49050004
H       -2.62366705     2.57154787     1.01993903
C       -2.13894954     0.72529856     0.09924520
H       -2.53212783    -0.23273246    -0.37968636
N       -0.89758581     0.87055712    -0.33278360
H       -0.31161688     0.06550163    -0.46288642
H       -0.51540073     1.81739343    -0.27233368
