6

C   -0.03524994    0.01007402    0.03066454    0.00004178    0.00011989   -0.00024822
N   -0.04806605   -0.03708309    1.28726034   -0.00008035   -0.00005706    0.00024158
H    0.87708636   -0.00063724   -0.51617769    0.00069465   -0.00060185   -0.00032643
H    0.85540878   -0.16550655    1.89044033   -0.00038004    0.00028411   -0.00053791
H   -0.87752800   -0.14477160    1.79410917    0.00061867   -0.00006592    0.00036092
H   -0.97992156    0.03641369   -0.52995350   -0.00031460   -0.00025210    0.00010424
