6

C   -0.03925256   -0.00094472    0.03515805   -0.00008940    0.00009153   -0.00008825
N   -0.04689026   -0.03522481    1.28020512    0.00004831   -0.00001038    0.00010268
H    0.93344077    0.06633329   -0.54391556   -0.00020549   -0.00052128    0.00026680
H    0.81223005   -0.17232727    1.91058416   -0.00009325    0.00008013   -0.00014473
H   -0.85599411   -0.12360796    1.80427420    0.00005690   -0.00022068   -0.00036989
H   -0.98327473    0.06057704   -0.48802729    0.00063584   -0.00028464   -0.00012757
