6

C       -0.03513091     0.00542063     0.03007872
N       -0.04283164    -0.04820708     1.28991569
H        0.16121643    -0.87419008    -0.58619722
H        0.00012286     0.78929368     1.87823525
H       -0.14055024    -0.92232750     1.81331977
H       -0.21990696     0.94275708    -0.49684335
