     6
  Step:   300            Position(A)                                  Velocity(au)
C        -0.03428455     0.01227608     0.02918845     0.00000508    -0.00002423     0.00013139
N        -0.04525249    -0.04867656     1.29027114     0.00000963     0.00001593    -0.00008420
H         0.88761988     0.07341601    -0.55025875    -0.00006476     0.00128598     0.00006308
H         0.78911680    -0.22108152     1.86645031    -0.00015887    -0.00134638    -0.00032829
H        -0.89911352    -0.00384108     1.85267416     0.00000663     0.00131610    -0.00012725
H        -0.95318795     0.01187942    -0.55469966     0.00002261    -0.00118827    -0.00000305
