    14
  Step:   600            Position(A)                                  Velocity(au)
C        -5.28799992    -1.42295288     0.23309912    -0.00063479    -0.00051498     0.00003913
C        -5.23930258    -0.17267337    -0.23556665    -0.00006030    -0.00080658    -0.00017368
H        -4.85321055    -1.79342458     1.16599178    -0.00192686     0.00163507     0.00159103
H        -6.01913211    -2.10676604    -0.21823429     0.00021169    -0.00002767     0.00082116
H        -5.64319087     0.17180685    -1.17232093    -0.00009658    -0.00147185    -0.00009973
C        -4.00899237     0.48946895     0.42594425    -0.00000180     0.00010543    -0.00050417
C        -2.86862285     0.89091191    -0.30297560    -0.00006518     0.00129550     0.00032492
H        -4.04334041     0.21596574     1.51027773     0.00000624    -0.00025342    -0.00139192
H        -2.87400293     1.26880733    -1.30002477    -0.00043701     0.00142202     0.00117012
C        -1.61678762     1.32163656     0.46857152     0.00101284     0.00056464     0.00003396
H        -1.59508492     1.20219178     1.52779813     0.00028635    -0.00206846     0.00120950
N        -0.56142553     1.87317435    -0.21083087    -0.00024769    -0.00052560     0.00016276
H         0.25879286     2.01791225     0.46812641     0.00270361     0.00001603    -0.00389551
H        -0.73922460     2.44973484    -1.05786136    -0.00029376     0.00037820     0.00166809
