     6
  Step:   120            Position(A)                                  Velocity(au)
C        -0.03489927     0.06456576    -0.15909314     0.00007137     0.00006995     0.00033953
N        -0.04719389     0.00238407     1.47202220    -0.00005841    -0.00000985    -0.00029036
H         0.77172594    -0.59936673    -0.56750123    -0.00118454    -0.00160547     0.00082400
H         0.85098649    -0.21459409     1.93698161     0.00003244     0.00123639     0.00010507
H        -0.76564358    -0.74829184     1.68992898     0.00121856    -0.00121565    -0.00074084
H        -0.99832621     0.08998178    -0.72734209    -0.00010520     0.00088809    -0.00019921
