6

C        0.19634523     0.37823470     0.48763346
N       -0.15854171     0.48168613     1.52555918
H       -0.40245749    -6.12132139    -4.06251743
H       -0.91789015    -0.20545185     1.93991138
H       -0.67373024    -6.68220536    -3.71216772
H        0.64417906     1.13824479    -0.28412513
