     6
  Step:   120            Position(A)                                  Velocity(au)
C        -0.03659930     0.06248302    -0.01084710     0.00010512    -0.00003277     0.00047389
N        -0.04760821    -0.00840901     1.34226887    -0.00009834    -0.00007978    -0.00045383
H         0.69178571    -0.66991347    -0.51087368    -0.00097712    -0.00085183     0.00041460
H         0.82436222    -0.02340911     1.92173320    -0.00004534     0.00168459    -0.00020541
H        -0.71898186    -0.76029112     1.66737509     0.00085134    -0.00059913    -0.00009652
H        -0.91240301     0.15614273    -0.70959337     0.00028502     0.00126547     0.00054692
