12

C       -0.04847807    -0.07045796    -0.01736557
N       -0.04883195     0.00249346     1.34611936
H        0.90224127     0.11959146    -0.64609290
H        0.87372198    -0.12596193     1.82778271
H       -0.89503320    -0.43584681     1.80925774
H       -0.83759741     0.57735734    -0.59814757
C       -0.04886452    -0.07154978    -0.01917462
N       -0.04890968     0.00273933     1.34703329
H        0.90464369     0.11919960    -0.64282909
H        0.87371884    -0.12052714     1.82748621
H       -0.89379225    -0.43935988     1.81078289
H       -0.83555257     0.58542078    -0.59378349
