     6
  Step:   120            Position(A)                                  Velocity(au)
C        -0.03261573     0.06639068    -0.19809687     0.00000518    -0.00003389     0.00014930
N        -0.03615778     0.01754962     1.51059348     0.00003804     0.00000201    -0.00012134
H         0.94603465    -0.11829939    -0.67227235     0.00035338     0.00126154    -0.00007177
H         0.62754587    -0.80685747     1.65812384    -0.00096328    -0.00086216    -0.00111430
H        -0.93829635    -0.33698496     1.85463000    -0.00030584     0.00110430     0.00032208
H        -0.95709967    -0.44263253    -0.57964892     0.00032542    -0.00112778     0.00077109
