     6
  Step:   300            Position(A)                                  Velocity(au)
C        -0.02486749     0.00234404     0.02580988    -0.00005888    -0.00006625     0.00010808
N        -0.03894101    -0.05397121     1.28998255     0.00020529     0.00003688    -0.00010116
H         0.16473391    -0.85667996    -0.62656447    -0.00147309     0.00022118    -0.00067982
H        -0.16812740     0.80879213     1.83574964    -0.00280026    -0.00046734     0.00039942
H        -0.21388970    -0.89996470     1.83806217     0.00050816     0.00041089     0.00054036
H        -0.15818472     1.00013347    -0.38882845     0.00161400     0.00011220    -0.00014215
