     6
  Step:   300            Position(A)                                  Velocity(au)
C        -0.00374379     0.02084564     0.01731811     0.00000845    -0.00003619    -0.00007971
N        -0.09973145    -0.05360678     1.30434808     0.00002148     0.00000396     0.00007696
H         0.17406926    -0.90709879    -0.52872458     0.00112552     0.00029212     0.00008733
H         0.18551381     0.75243390     1.86885248     0.00096424     0.00032745    -0.00088350
H         0.01436043    -0.96352170     1.76529688    -0.00143523    -0.00034024    -0.00002599
H        -0.15634948     0.94493127    -0.54542722    -0.00105378     0.00009693     0.00070249
