14

C   -6.00061530   -0.79368712   -0.14210744    0.00000748    0.00008621    0.00022873
C   -4.67661273   -0.74915540    0.11140105   -0.00019735   -0.00001930   -0.00018651
H   -6.46974689    0.17131220   -0.39627633    0.00010633    0.00009741   -0.00066128
H   -6.66299121   -1.60857854    0.06649551   -0.00014780    0.00104476   -0.00057751
H   -4.12103323   -1.63605330    0.49716077   -0.00015150   -0.00061814    0.00077613
C   -3.91748207    0.45233078   -0.04591676    0.00018701   -0.00001746   -0.00007640
C   -2.54545531    0.53942993    0.20166570    0.00006213   -0.00032570   -0.00000869
H   -4.41380653    1.35599372   -0.49242327   -0.00019941    0.00017518   -0.00004024
H   -2.08638320   -0.37303292    0.50605309    0.00123366   -0.00047319    0.00094216
C   -1.87651809    1.78410824    0.10113087   -0.00028554    0.00005835   -0.00000608
H   -2.46937609    2.69900689   -0.13089646   -0.00058080   -0.00041464    0.00028014
N   -0.51786444    1.71710220    0.12605948    0.00011346    0.00020710   -0.00001240
H    0.00959479    2.59004265    0.22852386    0.00015539    0.00101622    0.00018531
H    0.04068690    0.88792296    0.28827696    0.00070387   -0.00110907   -0.00014907
