     6
  Step:   300            Position(A)                                  Velocity(au)
C        -0.04431001    -0.00734353     0.02445177    -0.00010058     0.00008114    -0.00007117
N        -0.04146267    -0.03713295     1.29350969    -0.00001429    -0.00022519     0.00004162
H         0.90015512     0.11947335    -0.48777828     0.00037656     0.00010060     0.00073217
H         0.83456780    -0.23612785     1.78149681     0.00037162     0.00095908    -0.00008016
H        -0.87606609     0.14457718     1.86282607     0.00047704     0.00130077     0.00015566
H        -0.96742020    -0.09419549    -0.53092740     0.00017180    -0.00019806    -0.00053792
