     6
  Step:   120            Position(A)                                  Velocity(au)
C        -0.06818900    -0.07037232    -0.02882042    -0.00010443    -0.00001868    -0.00006030
N        -0.04102836    -0.03242754     1.34138311     0.00000653     0.00005746    -0.00005417
H         0.91332149    -0.01700758    -0.63081866     0.00002599    -0.00108364     0.00050501
H         0.82008835     0.24656640     1.87552575    -0.00067453     0.00098712     0.00001230
H        -0.87357626    -0.39602512     1.85038709     0.00080058    -0.00138949     0.00019710
H        -0.69006883     0.78587340    -0.49995112     0.00100160     0.00091021     0.00075696
