14

C       -4.69056205    -0.79959416    -0.84118819
C       -5.04338494    -0.27297611     0.32212715
H       -4.06550621    -0.12025433    -1.44656122
H       -5.27870936    -1.39254701    -1.45804356
H       -5.59755500    -0.74643091     1.02519416
C       -4.32329521     0.90345302     0.81004156
C       -2.94982050     1.23953153     0.59866274
H       -5.14380481     1.42440723     1.34318359
H       -2.66661658     1.85983438     1.46142315
C       -1.91236490     0.72947018    -0.29042768
H       -2.21692287     0.37078219    -1.23490961
N       -0.65114681     1.21315579    -0.12129101
H        0.09373954     1.01271912    -0.83677020
H       -0.60523496     1.92501620     0.70549763
