     6
  Step:   300            Position(A)                                  Velocity(au)
C        -0.03565779     0.00736398     0.02803070    -0.00001012    -0.00001928     0.00010081
N        -0.03944826    -0.05102532     1.28688420     0.00004493     0.00002559    -0.00009371
H         0.06047215    -0.89078684    -0.58775547    -0.00199831     0.00034096    -0.00043792
H        -0.20190677     0.77876762     1.88442406    -0.00238889    -0.00069533     0.00035545
H         0.00937805    -0.92011083     1.82973250     0.00185743     0.00044079     0.00056716
H        -0.10779538     0.98367611    -0.45138080     0.00202600    -0.00021225    -0.00038375
