14

C   -6.03117680   -0.92238393   -0.10187287   -0.00013091    0.00017122   -0.00023756
C   -4.66668213   -0.68552126    0.09690773    0.00033963    0.00013624    0.00007104
H   -6.66354101   -0.09824965   -0.44176208   -0.00003008   -0.00053614    0.00097846
H   -6.57351420   -1.82794491    0.10578556    0.00012438    0.00130485    0.00068828
H   -4.05011044   -1.53197245    0.39715504    0.00034678   -0.00036654    0.00027756
C   -3.96485319    0.57682543   -0.06755290   -0.00015442   -0.00029081    0.00000436
C   -2.63454859    0.56888745    0.22167172   -0.00018646   -0.00010613    0.00007722
H   -4.43447503    1.48439520   -0.37510159   -0.00011233   -0.00078559   -0.00059765
H   -2.07640301   -0.37759400    0.41321427   -0.00003804   -0.00186786   -0.00007498
C   -1.79745996    1.71435538    0.01349230    0.00057865    0.00015814    0.00009575
H   -2.28490826    2.64956634   -0.20674640   -0.00035074   -0.00025060   -0.00025199
N   -0.47234614    1.72872969    0.21186303   -0.00032733    0.00014796    0.00000595
H    0.11760689    2.54520560   -0.08137145   -0.00037430    0.00022159   -0.00021683
H    0.08964664    0.85359329    0.32037855   -0.00033736   -0.00059397   -0.00101439
