6

C       -0.03326605     0.07195088    -0.03123692
N       -0.04210760    -0.11087859     1.35948566
H        0.87798550    -0.25305081    -0.67807619
H        0.83631342     0.12165234     1.84851440
H       -0.95470939     0.10306183     1.86936384
H       -0.99096764     0.04197570    -0.66743248
