     6
  Step:   120            Position(A)                                  Velocity(au)
C        -0.04429442     0.05407005    -0.02357890    -0.00006857    -0.00009367     0.00062185
N        -0.04413293    -0.05052368     1.34389523     0.00002144     0.00006737    -0.00055438
H         0.85229941     0.30721799    -0.66857586    -0.00054512     0.00137142     0.00058737
H         0.61360329    -0.72074207     1.82129231    -0.00111465    -0.00124426    -0.00033742
H        -0.76588095     0.38298751     1.96041930     0.00110859     0.00104215    -0.00045078
H        -0.77188272    -0.58145956    -0.61536947     0.00107024    -0.00098929     0.00049467
