6

C       -0.02401767    -0.10331986    -0.03387067
N       -0.03509982     0.00551797     1.34444735
H        0.73446651     0.64281777    -0.49684733
H        0.75049521    -0.47436958     1.83937194
H       -0.96106167     0.04239191     1.85480814
H       -0.96287531     0.27386600    -0.58459215
