12

C       -0.04199894    -0.04603518    -0.04021191
N       -0.04356408    -0.12195353     1.35916614
H        0.90981176     0.45295564    -0.52017016
H        0.81736003     0.25345075     1.81055847
H       -0.85954864     0.42565655     1.74987970
H       -0.97469868     0.44144021    -0.55651989
C       -0.04219393    -0.04671308    -0.03582745
N       -0.04368149    -0.12142425     1.35530481
H        0.90336417     0.45608959    -0.51751527
H        0.81935913     0.25143015     1.81085983
H       -0.85789593     0.42545299     1.74705597
H       -0.96794776     0.44125333    -0.55523945
