6

C       -0.04219393    -0.04671308    -0.03582745
N       -0.04368149    -0.12142425     1.35530481
H        0.90336417     0.45608959    -0.51751527
H        0.81935913     0.25143015     1.81085983
H       -0.85789593     0.42545299     1.74705597
H       -0.96794776     0.44125333    -0.55523945
