12

C       -0.03916182    -0.03888232     0.00397236
N       -0.03958074    -0.00516564     1.34026374
H        0.85033687     0.21374127    -0.68570288
H        0.82880845    -0.36176834     1.80187425
H       -0.95184625    -0.17275708     1.80089159
H       -0.92354395     0.18612319    -0.69713902
C       -0.03909824    -0.04014535     0.00198987
N       -0.03936090    -0.00482543     1.34194905
H        0.85410838     0.21989085    -0.68390035
H        0.82846257    -0.36253525     1.80019628
H       -0.95418431    -0.17079169     1.79994747
H       -0.92844419     0.18909787    -0.69611565
