6

C       -0.03909824    -0.04014535     0.00198987
N       -0.03936090    -0.00482543     1.34194905
H        0.85410838     0.21989085    -0.68390035
H        0.82846257    -0.36253525     1.80019628
H       -0.95418431    -0.17079169     1.79994747
H       -0.92844419     0.18909787    -0.69611565
