     6
  Step:   120            Position(A)                                  Velocity(au)
C        -0.03403136    -0.01819774    -0.00144525     0.00008725    -0.00000629     0.00038529
N        -0.05476632    -0.07732613     1.32346072    -0.00004761     0.00004786    -0.00035106
H         0.73984301     0.63259859    -0.52019157    -0.00090235     0.00113364     0.00052451
H         0.71487199    -0.48434214     1.91025493    -0.00089371    -0.00126862    -0.00057400
H        -0.60970870     0.66000766     1.83390076     0.00113127     0.00100739    -0.00011031
H        -0.89138185    -0.18665221    -0.70597386     0.00028668    -0.00146254     0.00044716
