     6
  Step:   600            Position(A)                                  Velocity(au)
C        -0.09022397    -0.00389401    -0.02631653    -0.00002267    -0.00111044     0.00096429
N        -0.04224793    -0.06832529     1.28818670     0.00017997     0.00122515    -0.00101048
H        -0.14993060     0.80980891    -0.63698958     0.00358228    -0.00116333     0.00244433
H        -0.43169501     0.90836705     2.18548071    -0.00263664    -0.00263756     0.00525818
H         0.34568863    -0.64598082     2.09991567    -0.00027722    -0.00262017    -0.00651134
H         0.68548601    -0.74610358    -0.34386478    -0.00289921     0.00262797     0.00136021
