     6
  Step:   120            Position(A)                                  Velocity(au)
C        -0.04800780     0.10571229    -0.01908016    -0.00009123     0.00016190    -0.00012396
N        -0.05385294    -0.11092121     1.34407521    -0.00001876    -0.00002262     0.00000676
H         0.90775889    -0.07118397    -0.64264840     0.00034359     0.00034793     0.00052050
H         0.84821876    -0.27393081     1.83114837    -0.00036210    -0.00112145     0.00003228
H        -0.79869273     0.42356755     1.86919454     0.00077455     0.00071929     0.00019032
H        -0.84980346    -0.46650780    -0.61603788     0.00059173    -0.00156074     0.00064001
