6

C   -0.03771173    0.02104479    0.00571995   -0.00005973   -0.00012443    0.00004331
N   -0.04947204   -0.05225582    1.31187151    0.00021473    0.00012279   -0.00004890
H    0.96318590   -0.02022775   -0.52401322    0.00068955    0.00048455   -0.00012738
H    0.85963882   -0.16057874    1.78802440   -0.00181361   -0.00051966   -0.00044732
H   -0.91992900   -0.06633042    1.86582140   -0.00086392   -0.00046404    0.00105927
H   -0.97897706    0.05275295   -0.53617900   -0.00028421    0.00027554   -0.00032110
