6

C       -0.05365358     0.03050220     0.03029441
N       -0.04909452    -0.05782629     1.28648152
H        0.03968493    -0.92003556    -0.49285392
H        0.14557635     0.70488523     1.94313400
H        0.12676837    -0.96996233     1.73655042
H       -0.20338884     0.95544693    -0.53316865
