    14
  Step:   600            Position(A)                                  Velocity(au)
C        -5.27358882    -0.73308104     0.90899078    -0.00026271     0.00043749     0.00029843
C        -4.80375452    -0.46574735    -0.32704016     0.00057264    -0.00001850    -0.00057442
H        -5.35155737     0.15744688     1.56291316    -0.00201652     0.00102110    -0.00300158
H        -5.71714416    -1.76616313     1.10456517     0.00084042    -0.00106706    -0.00003691
H        -5.14237599    -1.18440169    -1.12228583     0.00291952     0.00155861    -0.00056281
C        -4.17285150     0.73545262    -0.81537619     0.00021106    -0.00041431     0.00023171
C        -2.93612140     1.33128474    -0.51251945    -0.00079908     0.00051442     0.00069366
H        -4.79710929     1.25562061    -1.68574298    -0.00041971     0.00032474    -0.00062437
H        -2.75725334     1.96549199    -1.44711484    -0.00130386    -0.00212119     0.00087300
C        -1.89149831     1.08712464     0.48534598     0.00000873    -0.00047666    -0.00037995
H        -2.33669734     0.48073863     1.24720547     0.00092873    -0.00047614     0.00384749
N        -0.48400520     1.16324081     0.52676802     0.00017605     0.00011998    -0.00020108
H         0.00498337     1.36629567     1.41565096     0.00101295     0.00129163    -0.00146399
H         0.18104239     0.90460398    -0.27714234    -0.00119835    -0.00270478     0.00055262
