6

C       -0.03650872     0.01793148    -0.21025437
N       -0.04537801    -0.05661861     1.49729331
H        0.94466987     0.26169398    -0.66329354
H        0.85517205    -0.38352237     1.98287233
H       -0.93291863     0.19843814     1.97016781
H       -1.01421571    -0.17326918    -0.69920266
