6

C       -0.03431449     0.27106997     0.07687607
N       -0.14753034    -0.26587073     1.26821152
H        0.05020074     1.30328662    -0.04653319
H       -0.05040943    -1.44661587     1.18651338
H        0.38820112    -0.15853102     2.15981069
H        0.85831751     0.09660063    -0.94707731
