12

C       -0.03451793    -0.01815408    -0.00368213
N       -0.05450011    -0.07759406     1.32549439
H        0.74490792     0.62628363    -0.52317728
H        0.71981744    -0.47727621     1.91351455
H       -0.61599314     0.65434337     1.83455456
H       -0.89300903    -0.17853587    -0.70850742
C       -0.03403136    -0.01819774    -0.00144525
N       -0.05476632    -0.07732613     1.32346072
H        0.73984301     0.63259859    -0.52019157
H        0.71487199    -0.48434214     1.91025493
H       -0.60970870     0.66000766     1.83390076
H       -0.89138185    -0.18665221    -0.70597386
