     6
  Step:   300            Position(A)                                  Velocity(au)
C        -0.02214783     0.02804004     0.03013601    -0.00004888     0.00003102     0.00003907
N        -0.03559129    -0.05804078     1.28735102     0.00017153    -0.00005324    -0.00003318
H         0.22883825     0.92471134    -0.54044192    -0.00157635     0.00001524    -0.00045386
H        -0.32513210    -0.94065466     1.74135408    -0.00264949     0.00086333     0.00040572
H        -0.14206963     0.72020987     1.94078310     0.00070161    -0.00038888     0.00040669
H        -0.21605586    -0.90161772    -0.49825002     0.00172298    -0.00011959    -0.00036300
