6

C       -0.03582069     0.05888650    -0.06589812
N       -0.05319699    -0.00529563     1.38830805
H        0.69555599    -0.66333754    -0.52092666
H        0.84142461    -0.03733279     1.95276895
H       -0.65100687    -0.82370078     1.65493903
H       -0.93283023     0.22649403    -0.70192090
