12

C       -0.03765242     0.02018031    -0.10683662
N       -0.06012002    -0.09741189     1.41253561
H        0.83870965     0.52417801    -0.57572419
H        0.79496319    -0.40125742     1.94355282
H       -0.64678809     0.62111994     1.89604662
H       -0.91569261    -0.30061985    -0.72785013
C       -0.03752958     0.01974715    -0.10318076
N       -0.06061673    -0.09709636     1.40943443
H        0.83353056     0.53376382    -0.57247273
H        0.79266074    -0.40941781     1.94275907
H       -0.63710168     0.62810384     1.89190662
H       -0.91245886    -0.30825252    -0.72663617
