    14
  Step:   600            Position(A)                                  Velocity(au)
C        -5.18946357     0.64033001     0.81166967    -0.00006593     0.00035720     0.00013761
C        -4.27402262    -0.32038794     0.46476752     0.00017644     0.00019846     0.00087053
H        -5.52702299     1.49825931     0.19963619    -0.00148110    -0.00092832    -0.00115679
H        -5.64171709     0.68685948     1.77682110    -0.00080209    -0.00179893    -0.00122469
H        -3.79799930    -1.06684334     1.21023639    -0.00017931     0.00125317     0.00118299
C        -3.69715068     0.18707836    -0.89814507     0.00047120     0.00019006     0.00024492
C        -2.47560503     0.82828754    -1.25094925     0.00026278    -0.00004746    -0.00079787
H        -4.35057147     0.10771764    -1.74114659     0.00224267    -0.00133878     0.00089539
H        -1.98771612     0.98907337    -2.28940525    -0.00107689    -0.00006424    -0.00057515
C        -1.72537821     1.19953788    -0.09655650    -0.00027350     0.00057789     0.00024211
H        -0.93808862     1.95841085    -0.05507266     0.00009320    -0.00064205     0.00226674
N        -1.95637813     0.57786171     1.05247418    -0.00042528    -0.00068798    -0.00066144
H        -1.07598029     0.46770956     1.57828082    -0.00116055     0.00053671     0.00262759
H        -2.58508725    -0.23479846     1.25799637     0.00147010    -0.00266372    -0.00313359
