6

C       -0.00896398     0.01773871     0.01847382
N       -0.07221470    -0.05362995     1.29936545
H        0.26710292     0.95162735    -0.46020773
H       -0.02884011    -0.98528581     1.72206588
H       -0.09291439     0.77004292     1.91335707
H       -0.24793137    -0.87229807    -0.55973936
