     6
  Step:   120            Position(A)                                  Velocity(au)
C        -0.03198066     0.03614579    -0.01417717     0.00005654    -0.00003726     0.00050063
N        -0.05294703    -0.02691602     1.33943754    -0.00005612    -0.00000433    -0.00044987
H         0.67967969    -0.62932191    -0.59494755    -0.00118798    -0.00118379     0.00040792
H         0.75088996     0.24202004     1.94867415    -0.00075375     0.00147961    -0.00031291
H        -0.67290512    -0.77825661     1.76339927     0.00128598    -0.00111552    -0.00043104
H        -0.85376012     0.43909599    -0.66943556     0.00076191     0.00132377     0.00062203
