12

C       -0.03069407     0.06141716    -0.21792639
N       -0.04189203     0.00303780     1.52164423
H        0.88601849    -0.35123670    -0.68282550
H        0.80261925    -0.49707088     1.88244148
H       -0.92090566    -0.47011568     1.80991982
H       -1.03276230    -0.12541633    -0.66598071
C       -0.03036077     0.06263409    -0.21813894
N       -0.04162991     0.00397766     1.52227397
H        0.88381459    -0.36044277    -0.67995794
H        0.79893521    -0.50014519     1.87650963
H       -0.92097744    -0.47962771     1.80518829
H       -1.03441680    -0.13118562    -0.66440317
