14

C       -5.30581128    -1.18494702    -0.52956869
C       -4.98209052    -0.29783851     0.39710951
H       -5.07655301    -1.27052993    -1.63890367
H       -5.99074559    -1.92356265    -0.19768615
H       -5.29899611    -0.41116067     1.48542297
C       -4.05033386     0.83835978     0.52579363
C       -2.78000485     0.53044962     0.06061001
H       -4.28217936     1.91922806     0.55523224
H       -2.62883078    -0.52496565    -0.18082433
C       -1.88694268     1.63879273     0.05392367
H       -2.27420125     2.60198329    -0.02729537
N       -0.56949081     1.52576329    -0.03333411
H        0.03284015     2.23060094    -0.44656879
H       -0.07454316     0.64690879    -0.12418135
