     6
  Step:   120            Position(A)                                  Velocity(au)
C        -0.02724793     0.06418249    -0.08391824    -0.00005410    -0.00006099     0.00059649
N        -0.03543714     0.00289666     1.40856420     0.00008366    -0.00003646    -0.00054953
H         0.87436278     0.07726581    -0.72511256    -0.00015873     0.00161235     0.00017834
H         0.53835085    -0.85432436     1.58921624    -0.00125319    -0.00078654    -0.00029916
H        -0.96342475    -0.08837843     1.91906057     0.00004107     0.00154388     0.00021480
H        -0.84510403    -0.60939978    -0.46506541     0.00085290    -0.00113627     0.00043480
