6

C       -0.03512698    -0.03316499    -0.11609365
N       -0.04976106    -0.12903909     1.41247276
H        0.92048759     0.35071911    -0.40874018
H        0.83608686     0.32876304     1.73500780
H       -0.88046155     0.39500512     1.72013055
H       -0.97896606     0.44412107    -0.39919115
