6

C       -0.01023990     0.10350683    -0.39839511
N       -0.05607264    -0.16505222     1.68032362
H       -1.12009153     0.30713340    -0.77780323
H       -0.87427407     0.76119869     1.66592370
H        0.73054400    -0.43007941     2.20945700
H        0.95196120    -0.24796878    -0.80856958
