6

C       -0.04604110     0.06778053    -0.02334496
N       -0.03886739    -0.04847494     1.35263756
H        0.90812753     0.06825938    -0.66398711
H        0.76780041    -0.54273441     1.80255210
H       -0.92807861     0.14052326     1.87160635
H       -0.87204272    -0.46987117    -0.63669406
