6

C       -0.05349274     0.09254906    -0.02220748
N       -0.04830973    -0.08411016     1.34230540
H        0.91575576     0.04128500    -0.63500219
H        0.80202376    -0.44880298     1.84733910
H       -0.81894426     0.35919422     1.89412111
H       -0.80300915    -0.55544278    -0.60292947
