     6
  Step:   300            Position(A)                                  Velocity(au)
C        -0.03699056    -0.01300321     0.02149537    -0.00009278     0.00005828    -0.00004002
N        -0.03515846    -0.01185742     1.30071010     0.00000142    -0.00016700    -0.00001578
H         0.86783516     0.16011039    -0.54211967     0.00035835     0.00032991     0.00098293
H         0.76710180    -0.42041057     1.78003194     0.00054227     0.00039904    -0.00020494
H        -0.93067246     0.01050838     1.80428799     0.00005362     0.00138785     0.00008408
H        -0.98784874    -0.10027685    -0.48143080     0.00013154    -0.00049062    -0.00016594
