6

C   -0.03170202    0.01694267    0.02965423   -0.00008189    0.00008752   -0.00017920
N   -0.04058690   -0.05940470    1.28452054   -0.00011820    0.00008231    0.00022442
H    0.90681333   -0.02460546   -0.56644888    0.00118518   -0.00036740   -0.00077295
H    0.75477779   -0.10090906    1.86397549    0.00090478   -0.00082748    0.00051535
H   -0.92848490   -0.01773166    1.88043513    0.00070271   -0.00036403   -0.00098955
H   -1.00427132    0.09708722   -0.48943099   -0.00017430   -0.00062767    0.00026390
