     6
  Step:   600            Position(A)                                  Velocity(au)
C         0.10837833    -0.04297935    -0.08203663     0.00048758     0.00003027     0.00065174
N        -0.16339199     0.06232117     1.43134652    -0.00016839    -0.00005879    -0.00046314
H         1.05763879    -0.86662618    -0.48679042    -0.00356604    -0.00512275     0.00059931
H         0.76058852    -0.05878266     1.90786601     0.00051517     0.00571274    -0.00257033
H        -1.30036348     0.03196666     1.30957855     0.00000479    -0.00641496     0.00159174
H        -0.75166505    -0.12955838    -0.75166990    -0.00042395     0.00628135    -0.00095103
