     6
  Step:   300            Position(A)                                  Velocity(au)
C        -0.05290555     0.02594055     0.03044629     0.00002082     0.00001016     0.00001310
N        -0.05091881    -0.05499147     1.28617291    -0.00011913    -0.00005701    -0.00000246
H         0.01654876    -0.92088010    -0.50337726    -0.00177471     0.00017435    -0.00046271
H         0.09241564     0.70764767     1.95059052    -0.00108305    -0.00015523     0.00036926
H         0.20776187    -0.94795684     1.74825072     0.00253304     0.00079123     0.00032416
H        -0.19164728     0.94649028    -0.53933630     0.00173217    -0.00013924    -0.00035262
