     6
  Step:   300            Position(A)                                  Velocity(au)
C        -0.00361235     0.01247421     0.01948886    -0.00005773     0.00013572     0.00012776
N        -0.08889437    -0.05125037     1.30135855     0.00025378    -0.00003236    -0.00013794
H         0.33871814     0.92873363    -0.45518491    -0.00006290    -0.00004780    -0.00064517
H         0.06208792    -0.97545837     1.71640291    -0.00151609    -0.00032549    -0.00008922
H        -0.01932730     0.80294592     1.86540908    -0.00127290    -0.00021781     0.00011384
H        -0.31606366    -0.86244497    -0.55094993     0.00001324    -0.00057646     0.00101509
