12

C       -0.03945440     0.03042168    -0.08084047
N       -0.05807914    -0.00056727     1.39957604
H        0.76473020    -0.57870474    -0.57195705
H        0.83284526     0.05490629     1.96496022
H       -0.62090714    -0.82603541     1.72795232
H       -0.91237572     0.32544538    -0.71461599
C       -0.03919366     0.03061082    -0.07748303
N       -0.05831693    -0.00070798     1.39655220
H        0.75805711    -0.58731604    -0.56892586
H        0.82953543     0.06399805     1.96366211
H       -0.61437196    -0.83343776     1.72548542
H       -0.90873053     0.33206885    -0.71186923
