6

C       -0.03919366     0.03061082    -0.07748303
N       -0.05831693    -0.00070798     1.39655220
H        0.75805711    -0.58731604    -0.56892586
H        0.82953543     0.06399805     1.96366211
H       -0.61437196    -0.83343776     1.72548542
H       -0.90873053     0.33206885    -0.71186923
