14

C   -5.98376452   -0.93330045   -0.04215167    0.00029731    0.00033173    0.00012787
C   -4.66818641   -0.65763145    0.07437374   -0.00020334   -0.00012853   -0.00004334
H   -6.68278682   -0.19436484   -0.47016013   -0.00090703    0.00050751   -0.00052561
H   -6.31825075   -1.93528932    0.07699822    0.00044248    0.00026459   -0.00049842
H   -4.04216167   -1.51357547    0.39883515   -0.00053017    0.00084477   -0.00077640
C   -4.00721794    0.59114374   -0.09777924    0.00018548   -0.00006525    0.00010554
C   -2.64697352    0.59950691    0.17226070    0.00020822    0.00012595    0.00002323
H   -4.48922066    1.54040279   -0.54693068   -0.00075871   -0.00234513   -0.00041687
H   -2.23655058   -0.33452162    0.63260740    0.00002846   -0.00022943   -0.00033058
C   -1.80062746    1.71731979    0.05811026   -0.00070322   -0.00037390    0.00002993
H   -2.19480359    2.64299531   -0.18466611    0.00098709   -0.00054307    0.00007878
N   -0.46442854    1.67959674    0.18337007    0.00035568    0.00015781   -0.00017951
H    0.07795893    2.56221464    0.06909495   -0.00100849    0.00028319    0.00107255
H    0.04366960    0.83884769    0.52589085   -0.00062782    0.00033528    0.00099277
