12

C       -0.03877221     0.04920995    -0.17665092
N       -0.03290838    -0.01311431     1.47850061
H        0.92744871     0.18851836    -0.67851120
H        0.62279278    -0.79691036     1.79615129
H       -0.92838707     0.01142040     1.99711868
H       -0.91548793    -0.47697297    -0.66352206
C       -0.03897917     0.04949555    -0.17450030
N       -0.03225815    -0.01288821     1.47687170
H        0.92689920     0.19458236    -0.67851679
H        0.61233953    -0.80402207     1.78981321
H       -0.92828195     0.01674516     1.99704139
H       -0.91116000    -0.48779515    -0.66009223
