     6
  Step:   300            Position(A)                                  Velocity(au)
C        -0.03127161     0.01413607     0.01449488    -0.00000812     0.00002707     0.00009333
N        -0.04829386    -0.05188938     1.30050042     0.00006929    -0.00000115    -0.00009330
H         0.30321033     0.94071876    -0.45249921    -0.00097338     0.00034129    -0.00041133
H        -0.04886099    -0.97232385     1.74827632    -0.00153662     0.00007815     0.00025755
H        -0.07385353     0.79773288     1.86714119     0.00070912    -0.00031334     0.00026580
H        -0.34970409    -0.88328438    -0.51579575     0.00093480    -0.00041266     0.00007235
