6

C       -0.04906525    -0.02677412    -0.00222049
N       -0.04028935    -0.05331442     1.33099638
H        0.84929389    -0.18301594    -0.69463138
H        0.77091656     0.34121629     1.86943280
H       -0.88745678    -0.40271846     1.83842569
H       -0.80115729     0.63464006    -0.59072253
