12

C       -0.03538555     0.05270298    -0.18335520
N       -0.04737214    -0.02326122     1.48345123
H        0.82408768    -0.52124375    -0.61897179
H        0.88984334    -0.08761182     1.95219531
H       -0.86756061    -0.59888933     1.84258843
H       -0.97932500     0.23317492    -0.71347446
C       -0.03543038     0.05262204    -0.18144150
N       -0.04732204    -0.02218739     1.48213511
H        0.82011483    -0.53110938    -0.61602916
H        0.88693338    -0.08435337     1.95042462
H       -0.86258338    -0.61310032     1.83684450
H       -0.97758132     0.24003508    -0.71341705
