6

C       -0.04120713    -0.02444361    -0.05924001
N       -0.05602643    -0.11585242     1.37301114
H        0.73296508     0.72757461    -0.39388567
H        0.82991590    -0.21516963     1.93374977
H       -0.56779193     0.74015469     1.71053850
H       -0.93842700    -0.02113941    -0.73230359
