14

C       -5.82384566    -1.28295512     0.19425807
C       -4.95663073    -0.37436793    -0.32125961
H       -6.35695856    -1.15247374     1.11530735
H       -5.76343004    -2.25450164    -0.32999386
H       -4.32481919    -0.88962872    -1.15123717
C       -4.12386857     0.83878339    -0.00991810
C       -2.79941679     0.70411199     0.45394213
H       -4.17488392     1.51647545    -0.89883732
H       -2.44340500    -0.17913092     1.05665766
C       -1.65669629     1.61726324    -0.07367291
H       -1.99545787     2.50867105    -0.58321026
N       -0.33295860     1.57732947     0.15006124
H        0.19841467     2.41269050     0.23383128
H        0.21438106     0.85164176     0.58627744
