14

C       -5.91030263    -0.85342243    -0.16605707
C       -4.67978470    -0.49827882    -0.42806730
H       -6.34564232    -0.63674371     0.86168168
H       -6.38040431    -1.61885628    -0.80740000
H       -4.13306807    -0.90912595    -1.24390674
C       -3.97353281     0.38253206     0.52643743
C       -2.73471398     0.85952403     0.61048689
H       -4.31878436     0.31714987     1.63676891
H       -2.65143354     1.57210669     1.49769837
C       -1.70402489     1.30157945    -0.29762582
H       -1.92002134     1.41553025    -1.36094093
N       -0.55287631     1.75904022     0.07930872
H        0.09367622     2.08695322    -0.61684428
H       -0.20125690     1.76677354     1.02313931
