12

C       -0.03982627    -0.02420865    -0.07690565
N       -0.05554433    -0.11849173     1.38973830
H        0.74191277     0.71600407    -0.40980495
H        0.83831327    -0.16320186     1.93298434
H       -0.60260907     0.73315603     1.70951482
H       -0.94411956    -0.02065395    -0.73653540
C       -0.03947439    -0.02418749    -0.07345201
N       -0.05604107    -0.11800291     1.38669876
H        0.73663327     0.72217594    -0.40689298
H        0.83756575    -0.17218312     1.93198827
H       -0.59538739     0.73801741     1.70721751
H       -0.94260442    -0.02975086    -0.73506914
