6

C       -0.03947439    -0.02418749    -0.07345201
N       -0.05604107    -0.11800291     1.38669876
H        0.73663327     0.72217594    -0.40689298
H        0.83756575    -0.17218312     1.93198827
H       -0.59538739     0.73801741     1.70721751
H       -0.94260442    -0.02975086    -0.73506914
