     6
  Step:   300            Position(A)                                  Velocity(au)
C        -0.05993782     0.01879194     0.02039013     0.00008338     0.00008165     0.00018113
N        -0.01885539    -0.05515639     1.29646898    -0.00027171     0.00001318    -0.00021900
H         0.15863594    -0.91121258    -0.51503753    -0.00109851    -0.00049771     0.00072448
H         0.00710487     0.79016287     1.86508766     0.00022027    -0.00053222     0.00053217
H        -0.10114983    -0.97758870     1.74401122     0.00262528    -0.00019518     0.00023551
H        -0.30128021     0.97140180    -0.46117857     0.00103523     0.00006897    -0.00060714
