6

C   -0.03597327    0.01126535    0.01349356    0.00016387   -0.00014021   -0.00040257
N   -0.03182358   -0.04808947    1.30310689   -0.00006978    0.00007875    0.00040257
H    0.89743103    0.00788473   -0.53898276   -0.00095524    0.00072996    0.00036245
H    0.78422874   -0.13731647    1.83866120    0.00004632   -0.00046075   -0.00066791
H   -1.02484532   -0.05045629    1.81942416    0.00039121   -0.00008377   -0.00070919
H   -0.99886151    0.04413939   -0.49628325   -0.00046541    0.00039097    0.00021748
