6

C       -0.01299149     0.08758080     0.00145878
N       -0.04567443    -0.07637288     1.32648785
H        0.64998069    -0.66228900    -0.60003833
H        0.78801462     0.25405667     1.87306401
H       -0.91146205    -0.37462056     1.83023866
H       -0.94995138     0.13075548    -0.66193612
