     6
  Step:   300            Position(A)                                  Velocity(au)
C        -0.03745526     0.00627784     0.02709357    -0.00003375    -0.00002593    -0.00001273
N        -0.04284523    -0.04717570     1.29212420     0.00002762     0.00002598     0.00000674
H         0.23825623     0.93109119    -0.48735737     0.00106683    -0.00010306     0.00060914
H        -0.01983734    -0.94075873     1.79358438     0.00097632    -0.00021187    -0.00044683
H        -0.09081246     0.79377253     1.87324888    -0.00113367     0.00015200    -0.00043391
H        -0.29882885    -0.87312429    -0.56609582    -0.00089115     0.00011094     0.00032960
