6

C       -0.03329758     0.06483507    -0.17237571
N       -0.04852014     0.00328302     1.48379141
H        0.76874190    -0.59918222    -0.58048115
H        0.85358767    -0.22171314     1.93733189
H       -0.76370790    -0.75286914     1.70231514
H       -1.00053503     0.08579279    -0.73237187
