     6
  Step:   120            Position(A)                                  Velocity(au)
C        -0.03955973    -0.01967774    -0.11907319     0.00004085    -0.00001874     0.00053877
N        -0.05525743    -0.12387724     1.42494076    -0.00010054     0.00006279    -0.00047935
H         0.77844111     0.68486380    -0.45357998    -0.00109050     0.00121939     0.00083072
H         0.84689175    -0.11925801     1.95557417     0.00018689    -0.00141813     0.00012188
H        -0.62390098     0.71271651     1.73106659     0.00154294     0.00099102    -0.00077370
H        -0.97507990     0.00783491    -0.72362450     0.00027105    -0.00144156     0.00006224
