6

C       -0.03980777     0.03148294     0.01887223
N       -0.04967813    -0.06505715     1.29397911
H        0.95942424     0.00810080    -0.50364517
H        0.86809289    -0.09059795     1.83021309
H       -0.90781722    -0.04448814     1.89160631
H       -0.96794087    -0.01388812    -0.53260428
