     6
  Step:   300            Position(A)                                  Velocity(au)
C        -0.04547096     0.02178643     0.03047917     0.00000585    -0.00002852    -0.00007909
N        -0.05805061    -0.05348564     1.28619540    -0.00004809    -0.00005729     0.00009354
H        -0.03955943    -0.92595801    -0.51116249    -0.00160889     0.00032622    -0.00058411
H         0.04642296     0.72127370     1.95298705    -0.00127782     0.00000833     0.00025827
H         0.25009771    -0.91777127     1.76536206     0.00193574     0.00090648     0.00007238
H        -0.12136276     0.93633376    -0.55175659     0.00154949    -0.00010500    -0.00010397
