14

C       -5.13982381    -1.15085095    -0.58589593
C       -5.04399125     0.13296589    -0.22760687
H       -5.00821639    -1.87746117     0.08282765
H       -5.49816731    -1.23482920    -1.58213489
H       -5.55096855     0.85475179    -0.90670260
C       -4.11837255     0.52278245     0.95664515
C       -2.91860792     1.17383925     0.74136246
H       -4.31307016    -0.17620497     1.72214282
H       -2.34525116     1.58905508     1.73384755
C       -1.88618631     1.07398784    -0.28531109
H       -1.95624891     0.24962869    -0.95433218
N       -0.53430651     1.39119813    -0.12703408
H       -0.14780114     0.91950718    -0.96857589
H       -0.04796235     2.09896759     0.51227185
