     6
  Step:   300            Position(A)                                  Velocity(au)
C        -0.03566910    -0.00951758     0.02562552    -0.00000866     0.00000496     0.00009634
N        -0.04134846    -0.02309119     1.29384567    -0.00001420    -0.00006712    -0.00006805
H         0.88473090     0.05290632    -0.55769276    -0.00002417     0.00094809     0.00037739
H         0.79800139    -0.26233965     1.82689572     0.00002941    -0.00059808    -0.00061075
H        -0.90664332    -0.01299978     1.84167407     0.00007186     0.00139883     0.00018279
H        -0.98939146    -0.01303537    -0.50394661     0.00022349    -0.00087523    -0.00015180
