6

C       -0.03479675    -0.00230806    -0.19502133
N       -0.04060348    -0.11093761     1.48997555
H        0.92993776    -0.00919635    -0.70219968
H        0.76555612     0.47244755     1.89374720
H       -0.95746076    -0.06562457     1.92253069
H       -0.97209387     0.50173065    -0.60339265
