6

C       -0.04505329     0.01540987     0.02538663
N       -0.02551784    -0.05213546     1.29215470
H        0.06324096     0.93252724    -0.53914361
H       -0.26915646    -0.91361117     1.78758911
H        0.00742936     0.73053034     1.96574688
H       -0.12299115    -0.87837052    -0.58091603
