14

C       -5.81046669    -0.75765839     0.33848760
C       -4.55631928    -0.66952088    -0.24717556
H       -5.95332694    -1.62574602     0.75820532
H       -6.68161944    -0.10449180     0.49309119
H       -4.10120805    -1.75954080    -0.43871658
C       -3.95271453     0.60891933    -0.27177378
C       -2.67839270     0.49935051     0.16880292
H       -4.14411586     1.55760996    -0.72742512
H       -2.34673467    -0.41763459     0.84259175
C       -1.89262323     1.64993556     0.11911516
H       -2.35986285     2.54930968    -0.31264165
N       -0.65055222     1.67222980     0.20380672
H       -0.15904124     2.56337325     0.01935144
H       -0.08692618     0.77968800     0.26657312
