     6
  Step:   120            Position(A)                                  Velocity(au)
C        -0.04400307    -0.04477532    -0.03200213    -0.00006241    -0.00021224    -0.00019801
N        -0.04329184    -0.04779981     1.35795775    -0.00003752     0.00011211     0.00005659
H         0.90850093     0.15712464    -0.65009609     0.00026789     0.00012942     0.00048958
H         0.87794670     0.02645666     1.84693292     0.00019379     0.00041540     0.00040204
H        -0.96198740    -0.12317198     1.83923807     0.00050795    -0.00086189    -0.00000696
H        -0.91146307     0.46760561    -0.63336595     0.00029541     0.00128830     0.00068842
