14

C       -4.95302077    -1.23294511    -0.49176769
C       -5.17254888     0.03839486    -0.08678733
H       -4.06079115    -1.84414927    -0.33825392
H       -5.67631801    -1.74822779    -1.02281875
H       -6.07610377     0.74117369    -0.28525365
C       -4.14287001     0.77660194     0.68109718
C       -2.84053971     1.17545265     0.71215055
H       -4.47901700     1.15443641     1.71221183
H       -2.48958892     1.33009434     1.73088426
C       -1.88301543     1.08197582    -0.36723744
H       -2.27298115     1.23422810    -1.42435184
N       -0.60080565     1.27540584    -0.07128472
H        0.24967084     1.02266253    -0.61981671
H       -0.50991716     1.10693249     0.92085410
