     6
  Step:   120            Position(A)                                  Velocity(au)
C        -0.03226384    -0.02254971    -0.17902879     0.00006449    -0.00003022     0.00010982
N        -0.04806649    -0.14562813     1.47901520    -0.00006919    -0.00005567    -0.00004812
H         0.92611072     0.27269402    -0.62699026     0.00009269    -0.00078634    -0.00008527
H         0.76306392     0.47508108     1.74466586    -0.00015762     0.00155635    -0.00096374
H        -0.90810733     0.32014641     1.85548776     0.00033994    -0.00087133    -0.00033994
H        -0.94160683     0.55470518    -0.50073120    -0.00008196     0.00123509     0.00074903
