     6
  Step:   120            Position(A)                                  Velocity(au)
C        -0.03262786     0.09500190    -0.00028408     0.00002824     0.00025361    -0.00042290
N        -0.04628747    -0.04885193     1.33649398    -0.00000274    -0.00019429     0.00030546
H         0.80950627    -0.40141122    -0.63642225     0.00050248    -0.00078929     0.00037119
H         0.87121269    -0.24349788     1.81144062     0.00014863     0.00061291    -0.00001463
H        -0.94949447    -0.19695401     1.80615464    -0.00027062     0.00038360    -0.00000876
H        -0.91213978    -0.28109191    -0.65812007    -0.00067896    -0.00052942     0.00044675
