6

C   -0.03574712    0.00092320    0.03165274   -0.00004303    0.00001819    0.00015885
N   -0.04323127   -0.04049863    1.28806076    0.00017724    0.00004860   -0.00018748
H    0.91967482    0.04050343   -0.52109389    0.00028969   -0.00027426   -0.00042160
H    0.83857222   -0.17874939    1.83319096   -0.00125057   -0.00000339   -0.00005314
H   -0.94105642   -0.11436909    1.84879991   -0.00116195   -0.00053670    0.00078569
H   -1.00340674    0.13461902   -0.54537691    0.00017263   -0.00007783    0.00040151
