6

C       -0.05352454    -0.00360171     0.02808455
N       -0.05058961    -0.04867971     1.28768488
H        0.11165860     0.98586759    -0.39598033
H        0.08084813    -0.88444375     1.85824085
H        0.20362807     0.79267234     1.83534155
H       -0.26826039    -0.84449122    -0.63435105
