6

C       -0.06029718     0.00098200     0.02533469
N       -0.02324920    -0.04915633     1.29133251
H        0.20476958     0.97385908    -0.39908283
H       -0.02495443    -0.93666840     1.79508825
H       -0.00257729     0.82898660     1.83400151
H       -0.34858254    -0.86455208    -0.58467207
