12

C       -0.04103683    -0.02889979    -0.12678145
N       -0.04673849    -0.12977788     1.42571466
H        0.93117277     0.36456025    -0.50312129
H        0.83147590     0.28780997     1.81835594
H       -0.88452941     0.37587034     1.76177898
H       -0.95255522     0.44981249    -0.48648387
C       -0.04153611    -0.02985064    -0.12607812
N       -0.04630630    -0.13010973     1.42468298
H        0.92964605     0.37079006    -0.49618961
H        0.83108498     0.28893434     1.81691317
H       -0.88610291     0.38235051     1.75875910
H       -0.94912052     0.45192007    -0.48299730
