6

C       -0.04153611    -0.02985064    -0.12607812
N       -0.04630630    -0.13010973     1.42468298
H        0.92964605     0.37079006    -0.49618961
H        0.83108498     0.28893434     1.81691317
H       -0.88610291     0.38235051     1.75875910
H       -0.94912052     0.45192007    -0.48299730
