12

C       -0.04750498     0.10479040    -0.01833664
N       -0.05376022    -0.11077348     1.34398639
H        0.90579311    -0.07305547    -0.64554140
H        0.85024204    -0.26775734     1.83104669
H       -0.80283526     0.41950897     1.86814907
H       -0.85299848    -0.45781883    -0.61962335
C       -0.04800780     0.10571229    -0.01908016
N       -0.05385294    -0.11092121     1.34407521
H        0.90775889    -0.07118397    -0.64264840
H        0.84821876    -0.27393081     1.83114837
H       -0.79869273     0.42356755     1.86919454
H       -0.84980346    -0.46650780    -0.61603788
