     6
  Step:   600            Position(A)                                  Velocity(au)
C        -0.08452556    -0.08765486    -0.26141369    -0.00048423     0.00034270     0.00002788
N         0.01120397    -0.05529643     1.49803129     0.00017477     0.00022394     0.00066179
H        -0.66001121    -0.32744272    -0.93258412     0.00397064    -0.00148305    -0.00092282
H        -0.38261388     0.91015858     1.99384482     0.00039558    -0.00189715    -0.00230228
H         0.46280079    -0.40013431     2.45350143    -0.00112072    -0.00242299    -0.00300340
H         0.21843418     0.96089735    -0.32465081     0.00009594    -0.00139228    -0.00330020
