14

C   -5.96753082   -0.75411003   -0.17434348    0.00009638   -0.00031129    0.00029687
C   -4.71527366   -0.77078876    0.19226281   -0.00037548   -0.00009621   -0.00011655
H   -6.41908452   -0.02121290   -0.79470360    0.00065736   -0.00017190   -0.00090077
H   -6.61061248   -1.58859363   -0.01823245    0.00020375    0.00069342   -0.00028169
H   -4.22746475   -1.59206676    0.71877879    0.00100829   -0.00002544   -0.00059798
C   -3.92893287    0.44361895   -0.05365571   -0.00031158    0.00000205   -0.00005581
C   -2.57330912    0.55690864    0.26309412    0.00018182    0.00043332   -0.00005604
H   -4.38618451    1.21955413   -0.61440468    0.00046168    0.00073990   -0.00065292
H   -2.01211164   -0.27220451    0.76435651    0.00032985    0.00018219    0.00011385
C   -1.84365227    1.70720150    0.03267595   -0.00018820    0.00005863    0.00010787
H   -2.29440742    2.69145119   -0.36041233   -0.00024900    0.00096177   -0.00039676
N   -0.51393603    1.76258533    0.11369040    0.00021963   -0.00015232    0.00006678
H   -0.05636575    2.68084868    0.02669472    0.00101310   -0.00011985   -0.00029282
H   -0.07824042    0.93492702    0.61324101    0.00063750   -0.00117415   -0.00002016
