12

C       -0.03629395    -0.01211979    -0.15769227
N       -0.03478522    -0.13331615     1.45808918
H        0.90984164     0.03386506    -0.74071290
H        0.61575785     0.63024914     1.78652599
H       -0.95726157    -0.01151724     1.94402232
H       -0.86541121     0.67463614    -0.48083742
C       -0.03665122    -0.01248773    -0.15561004
N       -0.03420982    -0.13309245     1.45627857
H        0.90978324     0.02798141    -0.74065292
H        0.60801793     0.63630830     1.78138465
H       -0.95909848    -0.01835465     1.94428548
H       -0.85951477     0.68257379    -0.47567030
