     6
  Step:   120            Position(A)                                  Velocity(au)
C        -0.03484034    -0.05056678     0.01642148    -0.00003334    -0.00001809     0.00015727
N        -0.04846674    -0.10552235     1.31438548    -0.00000896     0.00014509    -0.00020003
H         0.82272993     0.37112407    -0.60228644    -0.00083080    -0.00036745     0.00057756
H         0.80240544     0.26616234     1.77849033     0.00064667    -0.00030508     0.00004690
H        -0.88571354     0.23481628     1.82610322    -0.00030409    -0.00095009    -0.00040508
H        -0.86369608     0.52704915    -0.57112001     0.00100998    -0.00017799     0.00068630
