     6
  Step:   600            Position(A)                                  Velocity(au)
C         0.00196748     0.15180079     0.11345868    -0.00005022     0.00017212     0.00155329
N        -0.05100575    -0.18261603     1.22688438     0.00044775    -0.00048287    -0.00012196
H        -0.53621023    -0.49398957    -0.69007980     0.00020265     0.00172064     0.00331731
H         0.47677211     0.19122534     1.98008906    -0.00211143     0.00429901    -0.00764815
H        -0.91216680    -0.81265253     1.28638517    -0.00181210     0.00246545    -0.00879106
H         0.44444895     1.17384842    -0.08511917    -0.00190271    -0.00382613    -0.00369227
