6

C       -0.03708941     0.04398927    -0.12308585
N       -0.04281282    -0.04843417     1.42553753
H        0.88408360     0.30651882    -0.70991515
H        0.68690190    -0.64350646     1.88496909
H       -0.86315041     0.29437128     2.01347676
H       -0.88387162    -0.47830053    -0.63956816
