     6
  Step:   120            Position(A)                                  Velocity(au)
C        -0.04918893    -0.02862202     0.01643810    -0.00012481     0.00000752    -0.00000602
N        -0.03661019    -0.06935981     1.30791590     0.00008659     0.00006488    -0.00003242
H         0.80281114    -0.21415326    -0.68540891    -0.00004675    -0.00152591     0.00045286
H         0.65037016     0.52568617     1.83885996    -0.00086241     0.00100214    -0.00006150
H        -0.85455438    -0.40063365     1.88495342     0.00038354    -0.00162587    -0.00036119
H        -0.71669493     0.72425066    -0.51751109     0.00080959     0.00115848     0.00049210
