12

C       -0.02268380     0.06593183     0.00738600
N       -0.05079755    -0.04732020     1.32701018
H        0.71488443    -0.56896246    -0.62709222
H        0.82748290     0.12508000     1.86876819
H       -0.85372923    -0.52059589     1.79672485
H       -0.92537454     0.16661754    -0.67497404
C       -0.02191226     0.06653505     0.00557990
N       -0.05098415    -0.04779510     1.32808590
H        0.71250535    -0.57835727    -0.62381729
H        0.82515915     0.13398596     1.86868416
H       -0.85216648    -0.52779997     1.79741207
H       -0.92883525     0.17372191    -0.67227906
