14

C       -5.17450842    -0.14211540     0.92199792
C       -4.83875996    -0.54879426    -0.34932724
H       -5.30457354     0.98169051     1.20084590
H       -5.34455511    -0.85306285     1.71319695
H       -4.84841378    -1.65648666    -0.76520496
C       -3.87490464     0.32538668    -1.19594174
C       -2.59499966     0.75146138    -0.62225973
H       -4.01426670     0.55831278    -2.24456291
H       -1.82909785     0.94743526    -1.42782489
C       -2.23634642     1.30386900     0.60583796
H       -3.05544453     1.47110030     1.30901922
N       -0.87298509     1.31223137     0.81735367
H       -0.21342863     2.11958354     1.23081408
H       -0.16919536     0.70035334     0.26208983
