6

C       -0.21317212     0.12164230     0.05379472
N        0.11076085    -0.19887086     1.27086502
H        0.72624263     1.30252268    -0.29612865
H       -0.41373372    -0.85072220     1.69805717
H        0.90835136     0.54362668     1.47503564
H       -1.43294085    -0.35105243    -0.28629510
