     6
  Step:   120            Position(A)                                  Velocity(au)
C        -0.02802828     0.05162138    -0.00313442     0.00012584     0.00011914    -0.00034413
N        -0.05072703    -0.03366634     1.34163276    -0.00005205    -0.00010024     0.00020565
H         0.77994253    -0.46762652    -0.65597190    -0.00028295    -0.00158301     0.00043673
H         0.86598998    -0.02919013     1.85184493    -0.00002764     0.00157082     0.00007398
H        -0.88350770    -0.46549611     1.78948625     0.00008699    -0.00105981     0.00023883
H        -0.93645621     0.14525829    -0.69976879    -0.00055259     0.00104518     0.00049330
