12

C       -0.01765036    -0.07930821    -0.02900332
N       -0.04564022    -0.02730102     1.34257621
H        0.72075829     0.67211899    -0.50810270
H        0.77713384    -0.46174200     1.85141048
H       -0.88720321     0.28201446     1.87024335
H       -0.97906237     0.16227118    -0.63282644
C       -0.01698824    -0.07964462    -0.02960182
N       -0.04557959    -0.02695003     1.34243347
H        0.71621161     0.67802314    -0.50435174
H        0.77235932    -0.46875738     1.85270474
H       -0.88480111     0.28711813     1.87102832
H       -0.98087569     0.15741002    -0.62954129
