6

C       -0.01698824    -0.07964462    -0.02960182
N       -0.04557959    -0.02695003     1.34243347
H        0.71621161     0.67802314    -0.50435174
H        0.77235932    -0.46875738     1.85270474
H       -0.88480111     0.28711813     1.87102832
H       -0.98087569     0.15741002    -0.62954129
