     6
  Step:   120            Position(A)                                  Velocity(au)
C        -0.04171225     0.00864652    -0.02529867    -0.00001465    -0.00003169    -0.00006315
N        -0.03673235    -0.08625626     1.34977036     0.00002118     0.00009635    -0.00006211
H         0.83290939    -0.28740269    -0.67285977    -0.00035041    -0.00157242     0.00027582
H         0.74288524     0.42542263     1.87290172    -0.00101662     0.00093813     0.00036095
H        -0.92478997    -0.26627990     1.85525028     0.00070667    -0.00173872     0.00018516
H        -0.85644370     0.55408581    -0.61864968     0.00054064     0.00141171     0.00079374
