12

C       -0.04219537     0.02390380     0.00152962
N       -0.05584075    -0.07909117     1.32217113
H        0.78945565     0.50777903    -0.58465627
H        0.70428937    -0.53403748     1.88535192
H       -0.62129317     0.60783790     1.88406288
H       -0.80659274    -0.43712017    -0.68429413
C       -0.04212571     0.02367457     0.00365925
N       -0.05609398    -0.07862596     1.32019115
H        0.78478004     0.51546527    -0.58124381
H        0.70021059    -0.54271051     1.88398181
H       -0.61383627     0.61303546     1.88188184
H       -0.80260631    -0.44506416    -0.68201758
