6

C       -0.04994649    -0.00364615     0.02622136
N       -0.04938666    -0.04779028     1.28903144
H        0.13205264     0.98214936    -0.39851998
H        0.05700556    -0.89309874     1.85120248
H        0.15485239     0.80548681     1.83469312
H       -0.27538728    -0.85675268    -0.62062568
