6

C       -0.05710627    -0.00350641     0.02754463
N       -0.03545742    -0.04636952     1.28661077
H        0.14156130     0.98377951    -0.38307085
H       -0.01397151    -0.91524948     1.82794009
H        0.12356991     0.80976235     1.84509883
H       -0.29089116    -0.86191941    -0.60533523
