6

C       -0.04880193    -0.06919467    -0.02186131
N       -0.03834876    -0.05926757     1.34301690
H        0.88489572     0.27471143    -0.62139291
H        0.83847405     0.15608990     1.84704187
H       -0.96991299    -0.04746783     1.82080100
H       -0.85194902     0.59503375    -0.55695030
