6

C       -0.05181659     0.00122916     0.02703314
N       -0.04929565    -0.05275385     1.28919752
H        0.16125165     0.98500145    -0.38479985
H        0.07481227    -0.90195604     1.84066221
H        0.15512957     0.79761465     1.83561764
H       -0.30164080    -0.83200318    -0.63669986
