14

C       -5.89516165    -0.70355793     0.27269026
C       -4.62831012    -0.25080304     0.45870172
H       -6.16192193    -1.18048555    -0.73471404
H       -6.62880885    -0.64593775     1.07510992
H       -4.22260024     0.21048071     1.37249365
C       -3.79659244     0.03798424    -0.78558211
C       -2.51480286     0.64944776    -0.71153670
H       -4.26615621    -0.17989644    -1.71541744
H       -1.75033919     0.53552277    -1.62230358
C       -1.86081424     1.16290713     0.51468186
H       -2.12988303     1.07396721     1.62950494
N       -0.78073050     1.96037265     0.51886701
H       -0.39216120     2.51315042     1.31183424
H       -0.79352712     2.39585790    -0.52108901
