     6
  Step:     0            Position(A)                                  Velocity(au)
C        -0.03801450     0.02738661     0.01104590    -0.00007438     0.00006386     0.00007845
N        -0.03647267    -0.06066060     1.30485137    -0.00012375    -0.00011565    -0.00002513
H         0.94051406    -0.04705317    -0.55533983     0.00014686    -0.00000069    -0.00010050
H         0.80496777    -0.10725022     1.86043696     0.00051948     0.00045239    -0.00013418
H        -0.98737199    -0.04884815     1.84143176     0.00105529     0.00065988    -0.00058691
H        -1.01122790     0.04999411    -0.51878496     0.00088436    -0.00026541     0.00023593
     6
  Step:     1            Position(A)                                  Velocity(au)
C        -0.03841314     0.02774636     0.01136954    -0.00007073     0.00006778     0.00004002
N        -0.03720182    -0.06130121     1.30482200    -0.00014177    -0.00011877     0.00001435
H         0.94118140    -0.04706434    -0.55596077     0.00009625    -0.00000336    -0.00012554
H         0.80802378    -0.10477276     1.85994525     0.00059253     0.00045450    -0.00004962
H        -0.98105152    -0.04524589     1.83799932     0.00124595     0.00065785    -0.00066199
H        -1.00638899     0.04854095    -0.51768861     0.00087819    -0.00026616     0.00016082
     6
  Step:     2            Position(A)                                  Velocity(au)
C        -0.03878792     0.02812780     0.01148354    -0.00006571     0.00007185     0.00000198
N        -0.03802305    -0.06195940     1.30500828    -0.00015734    -0.00012219     0.00005357
H         0.94156664    -0.04708991    -0.55671267     0.00004403    -0.00000598    -0.00014871
H         0.81144734    -0.10228005     1.85989432     0.00065354     0.00045837     0.00002635
H        -0.97374690    -0.04165427     1.83419255     0.00141410     0.00065672    -0.00072303
H        -1.00162451     0.04708350    -0.51702634     0.00085784    -0.00026725     0.00007730
     6
  Step:     3            Position(A)                                  Velocity(au)
C        -0.03913144     0.02853170     0.01139123    -0.00005934     0.00007602    -0.00003529
N        -0.03892166    -0.06263682     1.30540753    -0.00016996    -0.00012586     0.00009209
H         0.94166271    -0.04712969    -0.55758628    -0.00000925    -0.00000858    -0.00017034
H         0.81516739    -0.09976245     1.86023324     0.00070064     0.00046381     0.00009255
H        -0.96559441    -0.03806755     1.83009609     0.00155447     0.00065656    -0.00076687
H        -0.99701226     0.04561977    -0.51684371     0.00082300    -0.00026863    -0.00001453
     6
  Step:     4            Position(A)                                  Velocity(au)
C        -0.03943633     0.02895857     0.01109785    -0.00005162     0.00008025    -0.00007143
N        -0.03988037    -0.06333483     1.30601462    -0.00017916    -0.00012974     0.00012940
H         0.94146559    -0.04718369    -0.55857411    -0.00006297    -0.00001119    -0.00019072
H         0.81910401    -0.09721155     1.86090568     0.00073241     0.00047056     0.00014810
H        -0.95675965    -0.03447939     1.82581218     0.00166150     0.00065753    -0.00079024
H        -0.99263076     0.04414791    -0.51718512     0.00077378    -0.00027029    -0.00011423
     6
  Step:     5            Position(A)                                  Velocity(au)
C        -0.03969550     0.02940867     0.01061069    -0.00004264     0.00008449    -0.00010603
N        -0.04087941    -0.06405454     1.30682154    -0.00018450    -0.00013378     0.00016494
H         0.94097464    -0.04725202    -0.55967037    -0.00011646    -0.00001384    -0.00021016
H         0.82317086    -0.09462039     1.86185159     0.00074793     0.00047836     0.00019245
H        -0.94743828    -0.03088233     1.82146069     0.00172976     0.00065992    -0.00078999
H        -0.98855676     0.04266618    -0.51809192     0.00071080    -0.00027222    -0.00022101
     6
  Step:     6            Position(A)                                  Velocity(au)
C        -0.03990237     0.02988197     0.00993905    -0.00003254     0.00008869    -0.00013873
N        -0.04189678    -0.06479686     1.30781726    -0.00018563    -0.00013794     0.00019815
H         0.94019285    -0.04733495    -0.56087087    -0.00016901    -0.00001654    -0.00022893
H         0.82727805    -0.09198358     1.86300897     0.00074684     0.00048694     0.00022542
H        -0.93785523    -0.02726717     1.81717850     0.00175432     0.00066412    -0.00076327
H        -0.98486246     0.04117280    -0.51960046     0.00063525    -0.00027446    -0.00033373
     6
  Step:     7            Position(A)                                  Velocity(au)
C        -0.04005122     0.03037823     0.00909412    -0.00002150     0.00009282    -0.00016920
N        -0.04290872    -0.06556250     1.30898768    -0.00018231    -0.00014222     0.00022849
H         0.93912709    -0.04743286    -0.56217299    -0.00021991    -0.00001932    -0.00024734
H         0.83133510    -0.08929728     1.86431577     0.00072937     0.00049605     0.00024716
H        -0.92826052    -0.02362233     1.81311685     0.00173131     0.00067065    -0.00070790
H        -0.98161239     0.03966591    -0.52174018     0.00054885    -0.00027703    -0.00045097
     6
  Step:     8            Position(A)                                  Velocity(au)
C        -0.04013746     0.03089699     0.00808874    -0.00000974     0.00009684    -0.00019719
N        -0.04389041    -0.06635212     1.31031593    -0.00017443    -0.00014661     0.00025552
H         0.93778805    -0.04754625    -0.56357568    -0.00026847    -0.00002220    -0.00026569
H         0.83525398    -0.08655901     1.86571172     0.00069626     0.00050550     0.00025817
H        -0.91892258    -0.01993327     1.80943729     0.00165840     0.00068013    -0.00062259
H        -0.97886057     0.03814336    -0.52453198     0.00045382    -0.00028002    -0.00057104
     6
  Step:     9            Position(A)                                  Velocity(au)
C        -0.04015781     0.03143764     0.00693701     0.00000246     0.00010075    -0.00022250
N        -0.04481686    -0.06716636     1.31178290    -0.00016206    -0.00015113     0.00027889
H         0.93619014    -0.04767573    -0.56507953    -0.00031406    -0.00002521    -0.00028429
H         0.83895178    -0.08376741     1.86714005     0.00064873     0.00051512     0.00025927
H        -0.91011848    -0.01618213     1.80630600     0.00153529     0.00069317    -0.00050723
H        -0.97664784     0.03660267    -0.52798703     0.00035279    -0.00028350    -0.00069212
     6
  Step:    10            Position(A)                                  Velocity(au)
C        -0.04011056     0.03199951     0.00565389     0.00001482     0.00010453    -0.00024504
N        -0.04566387    -0.06800593     1.31336794    -0.00014547    -0.00015579     0.00029844
H         0.93435121    -0.04782208    -0.56668678    -0.00035609    -0.00002836    -0.00030346
H         0.84235320    -0.08092193     1.86854900     0.00058837     0.00052481     0.00025150
H        -0.90212148    -0.01234770     1.80388650     0.00136398     0.00071038    -0.00036305
H        -0.97499995     0.03504091    -0.53210599     0.00024860    -0.00028758    -0.00081230
     6
  Step:    11            Position(A)                                  Velocity(au)
C        -0.03999559     0.03258190     0.00425468     0.00002705     0.00010819    -0.00026479
N        -0.04640920    -0.06887166     1.31504971    -0.00012510    -0.00016061     0.00031411
H         0.93229217    -0.04798620    -0.56840134    -0.00039406    -0.00003170    -0.00032349
H         0.84539236    -0.07802257     1.86989306     0.00051703     0.00053451     0.00023608
H        -0.89518770    -0.00840594     1.80233192     0.00114895     0.00073220    -0.00019271
H        -0.97392651     0.03345474    -0.53687879     0.00014423    -0.00029231    -0.00092966
