     6
  Step:   120            Position(A)                                  Velocity(au)
C        -0.00552944     0.09143447    -0.02120142     0.00010316     0.00000049     0.00002487
N        -0.05163198    -0.07254600     1.33847586     0.00000223    -0.00002956    -0.00013558
H         0.62790966    -0.68242008    -0.56540970    -0.00118986    -0.00098284     0.00067538
H         0.77453097     0.26381009     1.89771317    -0.00093485     0.00135795     0.00037065
H        -0.86199189    -0.49062357     1.83523939     0.00077381    -0.00108080    -0.00003301
H        -0.97003061     0.15803082    -0.62278910     0.00009063     0.00111054     0.00057472
