    14
  Step:   600            Position(A)                                  Velocity(au)
C        -5.43431751    -1.23436484    -0.18603914     0.00018961     0.00037531     0.00053482
C        -5.00455395     0.05433621     0.07933120     0.00072060     0.00001575    -0.00081730
H        -4.94200003    -2.14818692     0.16216939    -0.00142278    -0.00041029     0.00156531
H        -6.37565939    -1.36645754    -0.67019690     0.00150692     0.00006642    -0.00063007
H        -5.37285222     0.98952825    -0.20291387     0.00186233    -0.00092797    -0.00362248
C        -3.66688881     0.15466170     0.54342109    -0.00027519    -0.00039000     0.00037746
C        -2.84701074     0.79700605    -0.32234124    -0.00028910     0.00069294     0.00071171
H        -3.27101826    -0.47697667     1.40030412    -0.00015094    -0.00094522    -0.00047542
H        -2.95605220     0.84256926    -1.40275457    -0.00176040     0.00118768     0.00230281
C        -1.73500403     1.20813697     0.42531391     0.00027622    -0.00045440    -0.00091611
H        -1.67556138     1.14187270     1.46467956    -0.00088403    -0.00028896    -0.00009673
N        -0.85763736     2.01896006    -0.11379179    -0.00032375    -0.00022444     0.00006407
H        -0.06803305     2.01611591     0.58443038    -0.00125122    -0.00036528    -0.00039630
H        -0.71020287     1.91145506    -1.17177810    -0.00081449     0.00194746     0.00176629
