     6
  Step:   300            Position(A)                                  Velocity(au)
C        -0.03609138     0.01527796     0.03095710     0.00000643    -0.00000404     0.00002091
N        -0.04356785    -0.05579255     1.28443478     0.00000257     0.00000064    -0.00001149
H        -0.01765415    -0.88111829    -0.58236639    -0.00170985     0.00037892    -0.00032139
H        -0.19795862     0.75054259     1.90319083    -0.00181591    -0.00054746     0.00024593
H         0.08486812    -0.92611152     1.82447455     0.00175004     0.00052565     0.00032036
H        -0.04669214     0.98018222    -0.47112482     0.00166332    -0.00031782    -0.00033435
