     6
  Step:   300            Position(A)                                  Velocity(au)
C        -0.03187145     0.01426581     0.02278338    -0.00007024     0.00003919     0.00013361
N        -0.04859542    -0.05287401     1.29084514     0.00016793    -0.00000321    -0.00017183
H         0.21455998     0.98126037    -0.44137791    -0.00154788     0.00020177    -0.00034801
H        -0.11263722    -0.95941376     1.77921268    -0.00267871     0.00021517     0.00036836
H         0.00520067     0.79089917     1.86146918     0.00100887    -0.00040694     0.00056772
H        -0.26495781    -0.91776201    -0.51677725     0.00172104    -0.00043240     0.00020766
