     6
  Step: 50000            Position(A)                                  Velocity(au)
C        -0.03980777     0.03148294     0.01887223     0.00003974     0.00006424     0.00028760
N        -0.04967813    -0.06505715     1.29397911    -0.00024876    -0.00009410    -0.00029626
H         0.95942424     0.00810080    -0.50364517     0.00036984    -0.00015005    -0.00034647
H         0.86809289    -0.09059795     1.83021309     0.00123479     0.00044369     0.00100211
H        -0.90781722    -0.04448814     1.89160631     0.00152150     0.00049838    -0.00014675
H        -0.96794087    -0.01388812    -0.53260428    -0.00014285    -0.00024992     0.00018097
