14

C       -5.46288866    -0.55898148     0.88344607
C       -4.84210444     0.08674986    -0.11736861
H       -5.28209476    -1.57913838     0.72462127
H       -6.05465855    -0.07988375     1.57131652
H       -5.06451759     1.19620634     0.02716075
C       -3.67414031    -0.05469161    -1.01614201
C       -2.50537899     0.65422488    -0.83487141
H       -3.83415744     0.02992579    -2.04959487
H       -1.88260947     0.66721894    -1.68208851
C       -1.80969786     0.82691058     0.38285785
H       -2.11619407     0.20847571     1.29762043
N       -1.14165899     1.88226010     0.83303695
H       -1.12084225     2.14692745     1.78974342
H       -0.75795477     2.52412878     0.12522920
