12

C       -0.01875810    -0.06007709    -0.03034047
N       -0.05127236    -0.05134115     1.34471473
H        0.74703361     0.66153065    -0.50790058
H        0.79354332    -0.39949345     1.84583529
H       -0.83413619     0.40781157     1.86344363
H       -0.98335857     0.08971482    -0.63441374
C       -0.01809143    -0.06038387    -0.03041837
N       -0.05115342    -0.05097322     1.34416853
H        0.74143856     0.66786184    -0.50396493
H        0.78767028    -0.40724269     1.84677183
H       -0.83096469     0.41340244     1.86487353
H       -0.98465898     0.08408474    -0.63219738
