     6
  Step:   120            Position(A)                                  Velocity(au)
C        -0.04318866    -0.02153710    -0.18138849    -0.00002395    -0.00000723     0.00022695
N        -0.05247783    -0.14081451     1.48407019    -0.00004932     0.00000833    -0.00018063
H         0.86959329     0.53080951    -0.48940483    -0.00026496     0.00133657     0.00097101
H         0.86990645     0.09681570     1.89640149     0.00026426    -0.00110260     0.00012904
H        -0.70895587     0.67579548     1.69954854     0.00123456     0.00101292    -0.00111357
H        -0.99958505     0.24026003    -0.67624009    -0.00026319    -0.00127655    -0.00018069
