6

C       -0.05534081     0.09427959    -0.02324019
N       -0.03888495    -0.07057608     1.34375643
H        0.90483602     0.01727468    -0.63122342
H        0.75835159    -0.51592652     1.83256114
H       -0.87523651     0.25930182     1.88785129
H       -0.80110228    -0.57312678    -0.59355029
