    14
  Step:   600            Position(A)                                  Velocity(au)
C        -4.56471310    -0.65097442    -0.92586969     0.00032768    -0.00001922     0.00007037
C        -5.07007918    -0.08347097     0.23430635    -0.00077810    -0.00058014     0.00008885
H        -3.51157771    -0.39846149    -1.13593273    -0.00087956     0.00221325     0.00082171
H        -5.10849592    -1.50978634    -1.44321682     0.00156402    -0.00005969    -0.00016654
H        -6.04314293    -0.50811229     0.66617904    -0.00039811     0.00015979     0.00083291
C        -4.27715800     0.72782306     1.07868849    -0.00021612     0.00082301    -0.00023552
C        -2.91094369     1.06029455     0.82953543    -0.00034538    -0.00087057     0.00024157
H        -4.28652369     0.68705665     2.25348173    -0.00030788     0.00099364     0.00142896
H        -2.48331016     1.73656666     1.61781185     0.00321404    -0.00037751    -0.00093892
C        -2.07136766     1.11752593    -0.46947506    -0.00001567     0.00041247    -0.00014960
H        -2.65417089     1.51122298    -1.31438363     0.00186871    -0.00213284     0.00294720
N        -0.76110899     0.97958718    -0.27297117     0.00029210     0.00021673    -0.00045453
H        -0.12279603     1.15811845    -1.13835165     0.00304569     0.00141561     0.00129853
H        -0.04119044     0.48024645     0.39929663     0.00007909    -0.00243009    -0.00009406
