6

C       -0.04123415    -0.01817877    -0.16721293
N       -0.05584380    -0.13129092     1.46670940
H        0.84760151     0.57733726    -0.49077842
H        0.86247514     0.03710227     1.95872190
H       -0.67127499     0.66347538     1.75429784
H       -0.98435835     0.09337784    -0.71958405
