6

C       -0.03909458     0.06668251    -0.09505836
N       -0.05222771    -0.00018014     1.41646453
H        0.70258689    -0.69118322    -0.47878748
H        0.84912953    -0.06393480     1.94111754
H       -0.63215731    -0.87467621     1.61541669
H       -0.94086811     0.16789528    -0.73668723
