14

C       -6.05543589    -0.74354741     0.08606023
C       -4.69774532    -0.63801059     0.26355593
H       -6.27266141    -0.18544521    -0.81348925
H       -6.73374149    -1.43871210     0.53672918
H       -3.98723624    -1.23791305     0.95421743
C       -3.91551402     0.28187760    -0.50744237
C       -2.56450129     0.44358445    -0.20052455
H       -4.32689438     1.20768631    -0.92267028
H       -2.16098177    -0.54935087     0.12131532
C       -1.84085897     1.55936344     0.27095640
H       -2.33250684     2.36372323     0.72748401
N       -0.51066106     1.99477871     0.32324309
H       -0.07478363     2.53874055     1.11121064
H        0.30046750     1.45891970    -0.15153477
