6

C       -0.03047904     0.01400306     0.02429463
N       -0.04850702    -0.06107659     1.29338966
H        0.88995879    -0.04568928    -0.55383806
H        0.78936357    -0.04570631     1.88950503
H       -0.91039706    -0.03038591     1.84165843
H       -0.94460120     0.13389417    -0.54817119
