6

C       -0.06519643     0.31176890     0.16353635
N       -0.04815400    -0.29915158     1.20248008
H        0.29657685     1.17656942    -0.60165766
H        0.51642329     0.03667755     1.93107241
H       -0.19106713    -1.14138131     1.73680615
H       -0.38912464    -0.29980207    -0.83275607
