14

C       -5.75792175     0.16080927     0.43781945
C       -4.42357810    -0.21419476     0.43319507
H       -6.14582883     0.19646134    -0.54430866
H       -6.32521855     0.28977597     1.41255416
H       -3.73761758    -0.35770161     1.29570398
C       -3.48851600    -0.31397848    -0.75978701
C       -2.27340683     0.28082344    -0.94844970
H       -3.92181284    -1.08681668    -1.38387294
H       -1.65998466    -0.05727537    -1.69949715
C       -1.51849607     1.08170391     0.00791318
H       -0.49405941     1.21807773    -0.39156155
N       -1.85170026     1.89530191     0.97817456
H       -1.21211222     2.67314827     1.05855145
H       -2.66776359     1.56889699     1.55543487
