12

C       -0.04073012    -0.02200896    -0.11565617
N       -0.05645749    -0.12612587     1.42236252
H        0.75657296     0.70359475    -0.40880476
H        0.85695102    -0.13401938     1.94636677
H       -0.59042640     0.73493464     1.70472045
H       -0.96612915     0.04066266    -0.73773035
C       -0.04037145    -0.02201044    -0.11252514
N       -0.05665211    -0.12576216     1.41967238
H        0.75019402     0.70983130    -0.40557833
H        0.85337454    -0.14307329     1.94445075
H       -0.58359306     0.74160020     1.70265547
H       -0.96457646     0.03177789    -0.73690211
