12

C       -0.03466764     0.06268479    -0.10458523
N       -0.04960064     0.00440338     1.42544615
H        0.69067781    -0.70314507    -0.50731737
H        0.85694277    -0.15655648     1.94383975
H       -0.70211050    -0.80894885     1.61800370
H       -0.95606579     0.19072021    -0.72475467
C       -0.03441189     0.06240174    -0.10142747
N       -0.05018809     0.00428691     1.42260694
H        0.68417533    -0.70958125    -0.50434384
H        0.85759102    -0.14830395     1.94438787
H       -0.69390190    -0.81397441     1.61440977
H       -0.95330420     0.19892068    -0.72285574
