6

C       -0.04903212     0.02122116     0.02925015
N       -0.05617592    -0.05129796     1.28752089
H       -0.07919121    -0.92763179    -0.50634051
H        0.11599901     0.70907452     1.95207503
H        0.21737655    -0.93457740     1.75690211
H       -0.10220298     0.94334466    -0.55097462
