6

C       -0.00890055     0.02137127     0.02125891
N       -0.07781411    -0.05792784     1.29794026
H        0.30418550     0.95310214    -0.45583047
H        0.02494725    -0.98664648     1.72428454
H       -0.05772735     0.79015837     1.86661803
H       -0.29693864    -0.87606221    -0.53298710
