12

C       -0.02239485     0.11184695    -0.02874533
N       -0.04498568    -0.07226777     1.34965295
H        0.76066889    -0.54952503    -0.58316193
H        0.84675705    -0.01233092     1.86835763
H       -0.95377947    -0.26272991     1.82654189
H       -0.97458942    -0.17371409    -0.63242216
C       -0.02208321     0.11281204    -0.02889261
N       -0.04505488    -0.07310877     1.34913464
H        0.75702208    -0.55579438    -0.57847063
H        0.84558818    -0.00533696     1.87044627
H       -0.95119651    -0.26421211     1.82684696
H       -0.97510855    -0.17276973    -0.63054959
