12

C       -0.03597231    -0.04927754     0.01623970
N       -0.04600030    -0.08016702     1.31748633
H        0.79309837     0.25048604    -0.69751528
H        0.80147128     0.19323690     1.85419089
H       -0.90324983     0.06372563     1.84511042
H       -0.83636550     0.52400659    -0.61150953
C       -0.03625013    -0.04966567     0.01711646
N       -0.04578792    -0.07971893     1.31638240
H        0.79086774     0.24880948    -0.69258109
H        0.80205352     0.19487245     1.85177660
H       -0.90517776     0.05994032     1.84237718
H       -0.83242997     0.52623113    -0.60640311
