6

C       -0.03625013    -0.04966567     0.01711646
N       -0.04578792    -0.07971893     1.31638240
H        0.79086774     0.24880948    -0.69258109
H        0.80205352     0.19487245     1.85177660
H       -0.90517776     0.05994032     1.84237718
H       -0.83242997     0.52623113    -0.60640311
