     6
  Step:   120            Position(A)                                  Velocity(au)
C        -0.03471621     0.08127813    -0.20857644    -0.00002208     0.00007608     0.00004150
N        -0.03918827     0.00763538     1.51947433    -0.00000153     0.00004900    -0.00001509
H         0.91021297    -0.19676109    -0.69548664     0.00014149     0.00037170     0.00012467
H         0.71678638    -0.67692697     1.71032221    -0.00036383    -0.00130063    -0.00097192
H        -0.94469130    -0.40800067     1.84132937    -0.00004828     0.00067316    -0.00034349
H        -0.93699333    -0.46270198    -0.59386400     0.00055496    -0.00133175     0.00090599
