12

C       -0.04965193     0.10934984    -0.01923100
N       -0.05129835    -0.10028022     1.34262214
H        0.90458447    -0.07746673    -0.63847424
H        0.83598624    -0.32374180     1.83415291
H       -0.83630790     0.36566746     1.87417821
H       -0.81269152    -0.54374398    -0.60622131
C       -0.05020526     0.10995013    -0.01969423
N       -0.05148669    -0.10050907     1.34240160
H        0.90566795    -0.07441557    -0.63464783
H        0.83405580    -0.32899899     1.83389730
H       -0.83094748     0.37077219     1.87524590
H       -0.80799413    -0.55061558    -0.60227521
