6

C       -0.02222020     0.02802099     0.02617557
N       -0.04217932    -0.05748462     1.29106390
H        0.25089313     0.93533673    -0.51946635
H       -0.18894289    -0.97427342     1.72831126
H       -0.17292241     0.73615579     1.92273949
H       -0.25106614    -0.90207649    -0.49255070
