     6
  Step:   300            Position(A)                                  Velocity(au)
C        -0.03141213     0.01936902     0.01761581    -0.00002343     0.00002252    -0.00011540
N        -0.04937379    -0.05827879     1.29708721     0.00003482    -0.00000687     0.00009698
H         0.02477015     1.00026005    -0.45114701    -0.00005173     0.00002098    -0.00033160
H        -0.26348725    -0.93395483     1.77707830    -0.00026301     0.00001536     0.00008470
H         0.16560887     0.74473941     1.89449934    -0.00004820    -0.00011510     0.00030176
H        -0.07939796    -0.90174338    -0.56308675     0.00015819    -0.00009411    -0.00002734
