6

C       -0.04790610     0.02173224     0.02741174
N       -0.02435973    -0.06121459     1.29439644
H        0.16605810     0.96024555    -0.51332748
H       -0.12347651    -0.94591754     1.79853726
H       -0.10694344     0.75866234     1.91080333
H       -0.23922224    -0.85106736    -0.61799814
