12

C       -0.03823002    -0.01757750    -0.17553425
N       -0.05379937    -0.13760960     1.47399878
H        0.80235543     0.65811271    -0.47783314
H        0.86897137     0.04972635     1.95604652
H       -0.67617827     0.66728146     1.72274615
H       -1.00493156     0.07680761    -0.70042790
C       -0.03807615    -0.01764504    -0.17374956
N       -0.05415084    -0.13747393     1.47253864
H        0.79716808     0.66482492    -0.47285003
H        0.86978566     0.04283844     1.95666550
H       -0.66864832     0.67349932     1.71718654
H       -1.00503794     0.06968496    -0.70144598
