6

C       -0.04057985     0.03295936     0.02614907
N       -0.04932329    -0.08275398     1.29435331
H        0.92724447     0.11695900    -0.48282292
H        0.81559757    -0.15915623     1.83592337
H       -0.86520875     0.14948151     1.86833204
H       -0.92160999    -0.01981534    -0.62776765
