6

C       -0.06792009    -0.05859345    -0.02911192
N       -0.03349704    -0.05510847     1.33941787
H        0.91234565    -0.03907825    -0.62489105
H        0.75357228     0.38820897     1.85838122
H       -0.90846275    -0.35031099     1.86183537
H       -0.69556550     0.79543912    -0.46941183
