6

C       -0.00294370     0.13163423     0.05799042
N       -0.17533086    -0.15736122     1.23030602
H       -0.31271690     1.02893501    -0.38259996
H       -0.65723670    -0.24829569     2.40506825
H        1.49118970    -0.25941643     1.41954913
H        0.73717365    -0.57291582    -0.33773215
