6

C       -0.03982511    -0.01402963    -0.22467324
N       -0.04325716    -0.13766166     1.51650638
H        0.94960490     0.22385520    -0.65171339
H        0.78529191     0.38430110     1.87257313
H       -0.91881655     0.31794075     1.90288127
H       -0.95333714     0.48429910    -0.62838422
