     6
  Step:   120            Position(A)                                  Velocity(au)
C        -0.04028470     0.07130548    -0.11539134    -0.00000667    -0.00002327     0.00014452
N        -0.04030326     0.01578430     1.42862154     0.00009042     0.00003879    -0.00016622
H         0.93220115    -0.33140862    -0.47760950    -0.00055262    -0.00000742     0.00118260
H         0.77509215    -0.56380749     1.71353365    -0.00039821     0.00021731    -0.00058302
H        -0.90368402    -0.51387769     1.67677750    -0.00039398    -0.00058584    -0.00060739
H        -0.97645066    -0.32972473    -0.49826479     0.00016786     0.00011413     0.00059565
