     6
  Step:   300            Position(A)                                  Velocity(au)
C        -0.05453073     0.00686168     0.01375759     0.00003662    -0.00006175     0.00010687
N        -0.03305846    -0.05606136     1.30151004    -0.00016645     0.00001814    -0.00011621
H         0.25717837     0.96512782    -0.40091692    -0.00069838     0.00027543     0.00038261
H         0.02650977    -0.93650153     1.81523448     0.00018698     0.00039357     0.00032799
H         0.02433993     0.83520234     1.80631353     0.00169799    -0.00016981     0.00009236
H        -0.41179058    -0.83632623    -0.57876171     0.00069007    -0.00001550    -0.00046151
