6

C       -0.03457498     0.06871298    -0.21325972
N       -0.03166261     0.01099395     1.51962423
H        0.91435215    -0.16602347    -0.71916016
H        0.64213746    -0.78398183     1.75155903
H       -0.96178850    -0.27058199     1.87841487
H       -0.95563879    -0.42076115    -0.59477988
