    14
  Step:   600            Position(A)                                  Velocity(au)
C        -4.76662936     0.03059193    -1.36554562     0.00011629     0.00013589    -0.00003221
C        -5.06343563     0.22137428    -0.06593838     0.00000542     0.00016452    -0.00010982
H        -3.92131425     0.53444505    -1.85111604     0.00032775     0.00133663    -0.00116584
H        -5.33298071    -0.64735231    -1.93738291    -0.00123830     0.00054387    -0.00135422
H        -5.99141699    -0.06348069     0.50856918     0.00137214    -0.00133293    -0.00015520
C        -4.03600665     0.58033140     0.97724938     0.00046575    -0.00030943     0.00063300
C        -2.62670811     0.71257593     1.30523363    -0.00088548     0.00042298     0.00020306
H        -4.52510052     0.94587337     1.84025119     0.00212026    -0.00011538     0.00154619
H        -2.40541522     0.85183653     2.39645535     0.00005680     0.00031792     0.00043533
C        -1.72098438     1.15724688     0.36834817    -0.00069720    -0.00062468    -0.00023016
H        -1.27618524     2.14718840     0.55764226     0.00109075     0.00066608    -0.00280262
N        -1.28438643     0.44662121    -0.65412320     0.00047189     0.00004258    -0.00030959
H        -0.79292543     1.04855054    -1.37025736     0.00057073     0.00017011    -0.00102167
H        -0.84318947    -0.58112020    -0.56991955     0.00100140     0.00033306     0.00329278
