6

C   -0.04163268    0.01408837    0.04138078   -0.00001211   -0.00012888    0.00013910
N   -0.04144332   -0.04196647    1.27779588   -0.00025785    0.00008779   -0.00009201
H    0.90425560   -0.03863334   -0.52345960    0.00017789    0.00056730   -0.00002174
H    0.83613385   -0.17698435    1.83072538    0.00158027   -0.00058180    0.00025853
H   -0.95428827   -0.10624075    1.84563929    0.00151229    0.00007001   -0.00080232
H   -0.92703043    0.06738272   -0.51066030    0.00045704    0.00026023    0.00018662
