     6
  Step:   120            Position(A)                                  Velocity(au)
C        -0.05225744     0.09842353    -0.02380691    -0.00010679     0.00007648    -0.00005724
N        -0.03967449    -0.06048301     1.34534678    -0.00002007    -0.00009588    -0.00007012
H         0.90475960    -0.07027401    -0.62867855     0.00024059     0.00092913     0.00058323
H         0.77005153    -0.54709431     1.81616676    -0.00045980    -0.00082777     0.00014606
H        -0.89882212     0.19083844     1.87574917     0.00093614     0.00146981     0.00024609
H        -0.81489142    -0.57557403    -0.58292321     0.00083455    -0.00115013     0.00068120
