6

C       -0.04224221    -0.02208715     0.00062872
N       -0.03635116    -0.09425113     1.32300750
H        0.80426829    -0.22395452    -0.71255084
H        0.61080661     0.59339821     1.79037493
H       -0.90531692    -0.23123058     1.90618663
H       -0.71419299     0.76494706    -0.48443507
