14

C       -5.88072314    -0.71481693     0.38841847
C       -4.84793225    -0.76448254    -0.47081423
H       -5.59002616    -0.38479446     1.43181387
H       -6.90519793    -1.03062330     0.32545288
H       -4.68560936    -1.06029438    -1.42200601
C       -3.96141954     0.32848819     0.10220360
C       -2.50335586     0.53354319     0.02992844
H       -4.64035381     1.17841548     0.16525345
H       -1.93168654    -0.31982412     0.16703948
C       -1.64798547     1.63365366    -0.31868974
H       -1.54360934     2.14851536    -1.23339678
N       -0.71058898     1.86901779     0.52075499
H        0.05738824     2.46762629     0.12808775
H       -0.34454247     1.55782311     1.41968362
