6

C   -0.03505381    0.01088317    0.00449841    0.00004177    0.00010338   -0.00018007
N   -0.04695473   -0.04651602    1.30731147   -0.00012644   -0.00002844    0.00016429
H    0.95684546   -0.01124654   -0.52736076   -0.00045287   -0.00052500    0.00024871
H    0.82751741   -0.16078327    1.85629498    0.00128494   -0.00001248    0.00096398
H   -0.90082987   -0.08336259    1.87359437    0.00088878   -0.00004405   -0.00119165
H   -1.02626785    0.10233250   -0.53095092   -0.00046164   -0.00025518   -0.00015832
