     6
  Step:   300            Position(A)                                  Velocity(au)
C        -0.06190136     0.02314035     0.02376327     0.00009901     0.00011810     0.00013425
N        -0.01656317    -0.05871552     1.29482311    -0.00031311    -0.00000110    -0.00017733
H         0.15692270    -0.90566258    -0.51470053    -0.00091076    -0.00054022     0.00077536
H         0.03185122     0.78448081     1.86728528     0.00065818    -0.00052238     0.00048344
H        -0.13952456    -0.98126650     1.73586382     0.00261385    -0.00030923     0.00035100
H        -0.29439985     0.97286014    -0.47289290     0.00080996    -0.00002020    -0.00074527
