6

C       -0.02504941     0.02462695    -0.01001592
N       -0.04016617    -0.02957465     1.33683010
H        0.85316533    -0.07053988    -0.65779093
H        0.76719988    -0.26833350     1.84367006
H       -0.96539663    -0.19601927     1.83647894
H       -1.01123869    -0.01735987    -0.58803216
