6

C       -0.05290555     0.02594055     0.03044629
N       -0.05091881    -0.05499147     1.28617291
H        0.01654876    -0.92088010    -0.50337726
H        0.09241564     0.70764767     1.95059052
H        0.20776187    -0.94795684     1.74825072
H       -0.19164728     0.94649028    -0.53933630
