     6
  Step:   300            Position(A)                                  Velocity(au)
C        -0.00437303     0.00811920     0.02039772     0.00003627    -0.00001700    -0.00007613
N        -0.09862629    -0.05459219     1.29993655    -0.00007870     0.00000735     0.00010865
H         0.20279932     0.98619909    -0.42863875     0.00136023    -0.00022346     0.00010080
H         0.04331285    -0.92932280     1.81695560     0.00169338    -0.00021984    -0.00087476
H         0.15307050     0.75919256     1.86458138    -0.00113612     0.00047165    -0.00001550
H        -0.18945004    -0.82396322    -0.66831129    -0.00125603     0.00007219     0.00018671
