14

C   -5.98018419   -0.70729569   -0.13398551   -0.00027859    0.00008926    0.00009674
C   -4.69849122   -0.78126566    0.12001263    0.00011780   -0.00019322   -0.00001295
H   -6.60167728    0.15650412   -0.44796227   -0.00042880    0.00069680   -0.00086286
H   -6.62949623   -1.58083790    0.07669605   -0.00040153   -0.00023936   -0.00064723
H   -4.28450298   -1.73449805    0.51022158    0.00020596    0.00009530    0.00002185
C   -3.90620294    0.40086990   -0.02714481    0.00024942    0.00009558    0.00010393
C   -2.53502201    0.51904910    0.19466965   -0.00001563   -0.00015304   -0.00013853
H   -4.44124994    1.35486651   -0.31465750    0.00002695    0.00002186    0.00053789
H   -1.90108145   -0.33593027    0.45704457   -0.00068696    0.00074825    0.00043542
C   -1.86705134    1.70940467    0.00164921    0.00002830   -0.00016910   -0.00005671
H   -2.39429597    2.64611049   -0.29437304    0.00032725   -0.00033951    0.00011864
N   -0.53354150    1.79468238    0.20586135    0.00010234    0.00014404    0.00004864
H   -0.06611065    2.69487689   -0.01769269   -0.00118739    0.00035779   -0.00035091
H    0.00892706    0.90686363    0.33438999   -0.00048461    0.00059588    0.00016090
