     6
  Step:   120            Position(A)                                  Velocity(au)
C        -0.03665122    -0.01248773    -0.15561004    -0.00006358    -0.00006400     0.00037949
N        -0.03420982    -0.13309245     1.45627857     0.00010187     0.00004162    -0.00032971
H         0.90978324     0.02798141    -0.74065292    -0.00002180    -0.00107180     0.00001491
H         0.60801793     0.63630830     1.78138465    -0.00139005     0.00108141    -0.00091193
H        -0.95909848    -0.01835465     1.94428548    -0.00030465    -0.00123981     0.00004079
H        -0.85951477     0.68257379    -0.47567030     0.00105846     0.00141438     0.00091598
