12

C       -0.03677278     0.00030513    -0.00659475
N       -0.03585348    -0.02927894     1.34455747
H        0.83356449     0.36508140    -0.67127259
H        0.75456682    -0.54305693     1.80849293
H       -0.92593848     0.13640704     1.85075774
H       -0.93871176    -0.22497779    -0.70179620
C       -0.03692347     0.00014935    -0.00823685
N       -0.03563656    -0.02933584     1.34547845
H        0.83358724     0.37436868    -0.66810141
H        0.75181227    -0.55044923     1.81002583
H       -0.92432444     0.14454460     1.85106157
H       -0.93881270    -0.23236338    -0.70003495
