    14
  Step:   600            Position(A)                                  Velocity(au)
C        -5.69902047    -1.06703721    -0.40518003    -0.00011055    -0.00017886    -0.00003683
C        -4.89451961    -0.06705542    -0.00706260    -0.00050823    -0.00080346     0.00043488
H        -5.48083607    -2.10839157    -0.18288877    -0.00155676     0.00051004     0.00036275
H        -6.55342956    -0.80715189    -0.99367082     0.00084605    -0.00023752    -0.00336971
H        -5.08808388     0.99357666    -0.24263818    -0.00011277    -0.00149847     0.00021391
C        -3.52979431    -0.34015498     0.50455599    -0.00082155    -0.00011431     0.00000636
C        -2.73744355     0.87832259     0.61857950     0.00002570     0.00041021     0.00015262
H        -3.17151474    -1.40479629     0.73834531     0.00162215    -0.00030005    -0.00079958
H        -3.28718512     1.79503389     0.88086717    -0.00033557    -0.00233609     0.00128344
C        -1.62903183     1.12486874    -0.12989993     0.00001982     0.00136865    -0.00006786
H        -1.40366608     0.30881561    -0.82889771     0.00080389     0.00129448    -0.00014732
N        -0.93804789     2.28448098    -0.06923037     0.00092657    -0.00024160    -0.00022160
H        -0.69535955     2.76118346    -0.94560682     0.00150134    -0.00086746    -0.00038916
H        -0.93206486     3.05315167     0.62692590     0.00097628    -0.00133718     0.00009614
