     6
  Step:   300            Position(A)                                  Velocity(au)
C        -0.06530775     0.01316767     0.02127062     0.00002586    -0.00001434    -0.00004972
N        -0.00889470    -0.05456688     1.29707467    -0.00005537    -0.00003012     0.00005613
H         0.13911233     0.94585096    -0.50448331     0.00098339     0.00006025     0.00048653
H        -0.07887339    -0.93546997     1.81373236     0.00142700    -0.00016923     0.00009054
H        -0.05150638     0.79659244     1.86389057    -0.00084863     0.00041650    -0.00075337
H        -0.31986599    -0.87536650    -0.55915545    -0.00110054     0.00028197    -0.00001128
