     6
  Step:   120            Position(A)                                  Velocity(au)
C        -0.00872966     0.12454229    -0.02015911     0.00008773     0.00006279    -0.00007452
N        -0.04199026    -0.10573729     1.33817214     0.00005776    -0.00004622    -0.00002510
H         0.64628782    -0.65255585    -0.55528985    -0.00072700    -0.00096666     0.00058341
H         0.78107209     0.25752278     1.87365779    -0.00094379     0.00099414     0.00011590
H        -0.96000313    -0.22691731     1.83232275     0.00006586    -0.00084800     0.00005784
H        -0.99276910    -0.06251184    -0.61413729    -0.00024306     0.00071451     0.00047961
