     6
  Step:   120            Position(A)                                  Velocity(au)
C        -0.04204591    -0.00450844     0.00565020     0.00002000    -0.00001061    -0.00028881
N        -0.05549876    -0.01548018     1.33342701    -0.00005534    -0.00006909     0.00017782
H         0.83586394    -0.32564536    -0.67039710     0.00006503    -0.00147866     0.00017773
H         0.84377386     0.11364611     1.86298217    -0.00027170     0.00180516    -0.00004444
H        -0.77689035    -0.61777402     1.78601152     0.00061044    -0.00103131     0.00025475
H        -0.84343568     0.42882845    -0.68364253     0.00012701     0.00179134     0.00058241
