     6
  Step:   300            Position(A)                                  Velocity(au)
C        -0.03011140     0.00866665     0.01826709    -0.00004539    -0.00006570     0.00013866
N        -0.04499243    -0.05470309     1.29663233     0.00015642     0.00003088    -0.00013629
H         0.20571144    -0.87829315    -0.57777818    -0.00129669     0.00003341    -0.00071747
H        -0.04278063     0.81258260     1.84200891    -0.00234993    -0.00021750     0.00036696
H        -0.15163620    -0.93993893     1.79538174     0.00061920     0.00031356     0.00053765
H        -0.24018651     0.99278457    -0.40371541     0.00139465     0.00022425     0.00005448
