14

C       -6.15533108    -1.01087245    -0.15940897
C       -4.85408101    -0.65411540     0.10424998
H       -6.84408286    -0.50855957    -0.93554664
H       -6.59312483    -1.91969104     0.39508046
H       -4.33621473    -1.37930126     0.75295831
C       -3.86132351     0.40197376    -0.19721681
C       -2.58300166     0.68954156     0.42486288
H       -3.76757322     0.61885964    -1.33469050
H       -2.38658311     0.22802918     1.46551158
C       -1.71857912     1.72942755     0.00896281
H       -2.06657696     2.61752809    -0.50319828
N       -0.39128104     1.83221631     0.17792349
H       -0.00884293     2.66966386    -0.29694209
H       -0.07515393     1.07840533     0.83606881
