     6
  Step:   300            Position(A)                                  Velocity(au)
C        -0.03693745     0.01556185     0.01914905    -0.00000226     0.00004756    -0.00028754
N        -0.04063321    -0.05715785     1.29936443    -0.00003206    -0.00003075     0.00023062
H         0.21741577    -0.86200208    -0.56501203     0.00032319    -0.00044588     0.00052193
H         0.04043852     0.79016254     1.85869931     0.00042928     0.00039585    -0.00037099
H        -0.19970649    -0.94912450     1.76951843    -0.00004826    -0.00037557    -0.00029349
H        -0.26627082     0.96003175    -0.45576403    -0.00023182     0.00028614     0.00036403
