     6
  Step:   120            Position(A)                                  Velocity(au)
C        -0.02258013     0.07827583     0.01583371     0.00020836     0.00003867    -0.00025670
N        -0.05215070    -0.03460816     1.31703184    -0.00009615    -0.00012656     0.00014656
H         0.66571660    -0.66123873    -0.53934518    -0.00064071    -0.00112391     0.00030708
H         0.83872863     0.05996891     1.87108108    -0.00025206     0.00188524    -0.00012392
H        -0.81105964    -0.61118085     1.74883591     0.00041096    -0.00085840     0.00025602
H        -0.91255887     0.09087751    -0.67912743    -0.00066490     0.00139495     0.00058295
