     6
  Step:   120            Position(A)                                  Velocity(au)
C        -0.04953533     0.08969421     0.01020741    -0.00012698     0.00013440    -0.00027509
N        -0.04463663    -0.07337738     1.32051192     0.00003649    -0.00009442     0.00018128
H         0.87065679    -0.02522494    -0.67162428     0.00078508     0.00092714     0.00052426
H         0.77661478    -0.46889400     1.82921830    -0.00036360    -0.00110713    -0.00021144
H        -0.84264247     0.30733478     1.88261778     0.00035288     0.00146127    -0.00001039
H        -0.80702745    -0.53211814    -0.62009116     0.00023161    -0.00157077     0.00045648
