14

C       -6.05511994    -0.84925220    -0.32239987
C       -4.79933868    -0.74353696     0.34277796
H       -6.27916078    -0.35532296    -1.29107336
H       -6.56689495    -1.90205564    -0.12296321
H       -4.68596223    -1.51396976     1.10246660
C       -3.84804391     0.56343180     0.06261044
C       -2.42343137     0.48461038     0.17163704
H       -4.14466135     1.70872245     0.07461874
H       -2.04427567    -0.52101654     0.25711746
C       -1.83492058     1.67653779    -0.00201323
H       -2.47778490     2.55914299    -0.35823217
N       -0.53673336     1.82683888     0.13897217
H       -0.22607895     2.75613222    -0.09137445
H       -0.15181630     1.03675208     0.50201087
