6

C       -0.04562834     0.05954046    -0.01896945
N       -0.05929701    -0.09941526     1.34158600
H        0.88129015     0.35424233    -0.60611033
H        0.81693517    -0.40255193     1.85478216
H       -0.71829457     0.52791761     1.88691707
H       -0.82514146    -0.47736749    -0.66066948
