6

C       -0.06941645     0.01586514     0.01380780
N        0.00681444    -0.05370932     1.30691920
H        0.23852270     0.92031572    -0.50809746
H       -0.13246684    -0.96424545     1.76581330
H       -0.19778408     0.80333658     1.83005912
H       -0.38874275    -0.87187091    -0.52166807
