     6
  Step:   120            Position(A)                                  Velocity(au)
C        -0.03889597    -0.02323696    -0.22286367    -0.00000631    -0.00012811    -0.00005892
N        -0.05067618    -0.14272423     1.51399065     0.00002711    -0.00002186     0.00004259
H         0.88758506     0.47456611    -0.54625300    -0.00038119     0.00123059     0.00088422
H         0.86296297     0.22748761     1.88278494    -0.00025194    -0.00047038    -0.00037210
H        -0.82628086     0.48494726     1.80180570     0.00025870     0.00098447    -0.00076342
H        -0.96951006     0.40346200    -0.62957475     0.00007290     0.00008564     0.00036158
