    14
  Step:   600            Position(A)                                  Velocity(au)
C        -5.74600182    -0.57953088     0.39259331     0.00046548     0.00043044    -0.00063098
C        -4.55845876    -0.95517093    -0.25627347     0.00009322    -0.00064220     0.00001941
H        -5.97855924     0.43748207     0.42396588     0.00099964     0.00096424    -0.00080852
H        -6.24068556    -1.15515617     1.16137753     0.00048821     0.00274576     0.00047061
H        -4.02600841    -1.97844294    -0.31491388     0.00160512     0.00079170    -0.00043956
C        -3.90389011     0.29835501    -0.41599723    -0.00035095    -0.00033253     0.00049276
C        -2.67114549     0.72211354    -0.00155953    -0.00032682    -0.00023504     0.00006926
H        -4.43748157     1.19107709    -1.08746940    -0.00076903     0.00119017     0.00332212
H        -2.00790366    -0.01546640     0.33088482    -0.00027812    -0.00158039     0.00057203
C        -1.94424002     1.97187249     0.11592925     0.00039316     0.00027843     0.00019233
H        -1.99661048     2.99922988    -0.11043949     0.00099623    -0.00160805     0.00093717
N        -0.74570118     1.52556758     0.40700476    -0.00040631     0.00036045    -0.00033413
H         0.10891866     2.05696085     0.35229418     0.00156659    -0.00146258    -0.00056180
H        -0.72772264     0.53579842     0.57185042    -0.00222842    -0.00008109    -0.00055016
