6

C       -0.03509729    -0.01114202    -0.13798963
N       -0.04955145    -0.12545443     1.43038581
H        0.93253386     0.27173208    -0.53845970
H        0.84407980     0.24616674     1.86580365
H       -0.89629470     0.32184686     1.82699700
H       -0.98645580     0.36659508    -0.49515345
