     6
  Step:   300            Position(A)                                  Velocity(au)
C        -0.02932285     0.00743885     0.02730202    -0.00001341    -0.00002889     0.00000625
N        -0.05811297    -0.04843845     1.29421960     0.00000434     0.00001019    -0.00001673
H         0.18534072     0.93875050    -0.51765793     0.00134308    -0.00017391     0.00065153
H         0.01926068    -0.93408629     1.81056655     0.00140704    -0.00011537    -0.00059534
H        -0.01104114     0.77788378     1.89342974    -0.00140898     0.00029141    -0.00036843
H        -0.24952609    -0.86783159    -0.60455854    -0.00124163     0.00020045     0.00047019
