6

C   -0.02880539    0.02822442    0.01885916   -0.00005521    0.00001471   -0.00029679
N   -0.04463111   -0.06682811    1.29785654   -0.00014635    0.00004768    0.00021404
H    0.91357360   -0.04828757   -0.55658525    0.00094899    0.00005965   -0.00056722
H    0.82862525   -0.06575192    1.84595234    0.00119634   -0.00050324    0.00130549
H   -0.95734399    0.01174817    1.86431108    0.00080967   -0.00019350   -0.00051472
H   -1.03433654    0.02485664   -0.52183480   -0.00026332   -0.00020074    0.00033869
