     6
  Step:   120            Position(A)                                  Velocity(au)
C        -0.01299149     0.08758080     0.00145878     0.00015046     0.00008778    -0.00031074
N        -0.04567443    -0.07637288     1.32648785     0.00000424    -0.00006034     0.00016969
H         0.64998069    -0.66228900    -0.60003833    -0.00067194    -0.00134828     0.00063403
H         0.78801462     0.25405667     1.87306401    -0.00058833     0.00135957     0.00003493
H        -0.91146205    -0.37462056     1.83023866    -0.00001273    -0.00131039     0.00009687
H        -0.94995138     0.13075548    -0.66193612    -0.00057886     0.00109157     0.00057879
