12

C       -0.02516335    -0.05942904    -0.02802009
N       -0.03493220    -0.00881879     1.35164587
H        0.77659535     0.57028376    -0.57731769
H        0.70818920    -0.59244010     1.82429515
H       -0.93378458     0.14096391     1.85902753
H       -0.97865396     0.04212196    -0.66301677
C       -0.02467437    -0.06004962    -0.02834691
N       -0.03487297    -0.00871338     1.35121976
H        0.77182359     0.57865385    -0.57285108
H        0.70351207    -0.59790529     1.82558643
H       -0.93084140     0.14766716     1.85951573
H       -0.97879806     0.03844381    -0.65944706
