6

C       -0.02467437    -0.06004962    -0.02834691
N       -0.03487297    -0.00871338     1.35121976
H        0.77182359     0.57865385    -0.57285108
H        0.70351207    -0.59790529     1.82558643
H       -0.93084140     0.14766716     1.85951573
H       -0.97879806     0.03844381    -0.65944706
