12

C       -0.03148958     0.04214668    -0.06977330
N       -0.04698681    -0.04727189     1.38215940
H        0.73674602    -0.54470008    -0.64725880
H        0.74618919     0.27141338     1.99317229
H       -0.76968841    -0.67074922     1.84069970
H       -0.89801730     0.42893793    -0.67011440
C       -0.03132005     0.04186258    -0.06581768
N       -0.04739502    -0.04711105     1.37869964
H        0.73034721    -0.55197761    -0.64478018
H        0.74271438     0.27922261     1.99236851
H       -0.76092842    -0.67735253     1.83685324
H       -0.89325117     0.43615974    -0.66700015
