6

C       -0.02126493     0.13014989    -0.02512205
N       -0.04390665    -0.10538110     1.34195030
H        0.72971110    -0.55722544    -0.57079249
H        0.82569033     0.15712629     1.87939278
H       -0.95173126    -0.12617917     1.83507536
H       -0.95308763    -0.22996559    -0.60048346
