12

C       -0.04660333     0.08280731    -0.00282384
N       -0.03588264    -0.04067953     1.33524080
H        0.87219144    -0.08146879    -0.67658204
H        0.75478518    -0.54588404     1.80431323
H       -0.93741065     0.04286041     1.84579413
H       -0.84854239    -0.50672404    -0.60280344
C       -0.04742835     0.08364729    -0.00468975
N       -0.03563193    -0.04157557     1.33633393
H        0.87662635    -0.07685041    -0.67434123
H        0.75368581    -0.54995786     1.80602695
H       -0.93609163     0.05232670     1.84588206
H       -0.84684997    -0.51429252    -0.59980218
