6

C        0.26872511     0.06596949    -0.09612785
N       -0.24201598    -0.07036790     1.40291817
H       -0.49014420    -1.02148883    -0.64274107
H       -0.58184528     0.61935709     2.06483744
H        0.34176201    -1.07179612     1.73103265
H       -0.32209708     0.99604229    -0.61078962
