14

C       -5.08496514    -0.87338959     0.73751485
C       -5.11508911    -0.09004919    -0.31499296
H       -4.14149828    -1.51106934     0.81390534
H       -5.92865045    -1.10077248     1.41927209
H       -6.04754544     0.25639691    -0.73450962
C       -3.82379524     0.32013442    -0.89018818
C       -2.60807320     0.74006471    -0.47447538
H       -3.87757914    -0.08973346    -1.91282367
H       -1.79778128     0.53245849    -1.31413025
C       -2.14422782     1.57941469     0.56575329
H       -2.49014239     2.61418980     0.97274770
N       -0.81268508     1.40085253     0.63361213
H       -0.25304365     1.84462621     1.36164797
H       -0.40704673     0.65523938     0.08861167
