     6
  Step:   120            Position(A)                                  Velocity(au)
C        -0.03245674    -0.00632245    -0.00135875     0.00008733    -0.00004912    -0.00031364
N        -0.05550297    -0.08299736     1.33692475    -0.00009221     0.00008494     0.00021152
H         0.84270247     0.43491530    -0.61964973     0.00009412     0.00157801     0.00044340
H         0.85493384    -0.23504647     1.82926018     0.00001786    -0.00163956    -0.00007165
H        -0.82791873     0.41901640     1.83394692     0.00067648     0.00080656     0.00015376
H        -0.92459538    -0.05996088    -0.71370663    -0.00054766    -0.00134007     0.00027250
