14

C       -5.34963986     0.08194313     0.92882279
C       -4.50037050    -0.55117108     0.06385865
H       -5.19884148     1.06616080     1.44247256
H       -6.11331685    -0.73086908     1.25977312
H       -5.05946402    -1.40043097    -0.41292864
C       -3.44324496    -0.37255018    -0.95885302
C       -2.33119525     0.32453560    -0.70734379
H       -3.57426800    -0.94564690    -1.81903213
H       -1.43496485     0.53284379    -1.32066332
C       -2.36124229     1.30040941     0.28263659
H       -3.21388047     1.40035618     0.95800338
N       -1.37805117     2.05397139     0.60458488
H       -1.38680504     3.00096004     1.17351036
H       -0.52324615     1.84288935    -0.01092467
