6

C       -0.04542893     0.00154339     0.01499379
N       -0.03531635    -0.04643085     1.29998546
H        0.87709102    -0.01513531    -0.56019170
H        0.81988859    -0.05696883     1.85964798
H       -0.88977401    -0.06402626     1.86456036
H       -0.98805158     0.09320558    -0.51570058
