14

C       -5.95165410    -1.00319118    -0.00240481
C       -4.67436814    -0.64728029     0.15409440
H       -6.75542530    -0.25624638    -0.35178782
H       -6.39164075    -1.99283115     0.22812753
H       -3.91041093    -1.47126561     0.36709289
C       -4.00004426     0.66388838     0.03319262
C       -2.63168684     0.66189804    -0.24729313
H       -4.52785116     1.71526085     0.34189430
H       -2.40733729    -0.21129645    -0.98182926
C       -1.78130201     1.65170255     0.34790852
H       -2.23913975     2.19103398     1.16477237
N       -0.50319121     1.72055565     0.04422066
H        0.27022389     2.10339066     0.64043838
H       -0.14838944     0.84060960    -0.41202550
