    14
  Step:   600            Position(A)                                  Velocity(au)
C        -4.59298731    -0.23286175    -1.38931051    -0.00078394     0.00026987    -0.00067273
C        -4.78752666     0.28233764    -0.18561174    -0.00046292    -0.00019475    -0.00028718
H        -3.60221202    -0.71382097    -1.68510887    -0.00021730     0.00027390    -0.00051147
H        -5.42758094    -0.44752683    -2.08935492    -0.00065482    -0.00148134     0.00146187
H        -5.91836228     0.21739111    -0.03651644    -0.00186080     0.00149229     0.00052929
C        -4.09393251     0.74713139     0.93260588    -0.00014783    -0.00030772     0.00024632
C        -2.79281835     1.01050644     1.41092652    -0.00013565    -0.00048740    -0.00000307
H        -4.79911966     0.58077315     1.72433237     0.00097860    -0.00187308     0.00073165
H        -2.53504810     1.32282029     2.44085988     0.00002944     0.00319683    -0.00106663
C        -1.61517012     0.89831129     0.53718175     0.00116423     0.00113180     0.00008034
H        -0.73099647     1.16223315     0.99269259     0.00287697     0.00184502     0.00216502
N        -1.49305782     0.51805722    -0.67898647     0.00014036    -0.00046237     0.00027499
H        -0.74402556     0.70913013    -1.32954266    -0.00032801    -0.00137183    -0.00005184
H        -2.37950078     0.37274950    -1.12964143     0.00158814    -0.00056357     0.00050294
