     6
  Step:   600            Position(A)                                  Velocity(au)
C        -0.04314254    -0.02172559    -0.08304424     0.00005635    -0.00051622    -0.00034555
N        -0.02169603    -0.06108955     1.39666275     0.00053101     0.00099989     0.00021295
H        -0.00667243     1.37623150    -0.59082846    -0.00399967    -0.00200225     0.00066663
H        -0.68114457    -0.83812879     1.75722109    -0.00509398     0.00049928    -0.00119340
H         0.34402210     0.79243477     1.76666546     0.00019497    -0.00571385     0.00700213
H        -0.05325698    -0.89261995    -0.46003448     0.00084809    -0.00052674    -0.00531703
