    14
  Step:   600            Position(A)                                  Velocity(au)
C        -5.87713864    -0.42206746     0.29295163    -0.00017688    -0.00028316    -0.00014232
C        -4.55301388    -0.77060658     0.28473470    -0.00028270     0.00022766     0.00048802
H        -6.69332967    -0.06022555    -0.33331741    -0.00159612    -0.00047293    -0.00014774
H        -6.29863734    -0.74056734     1.22784741    -0.00119575     0.00091068    -0.00006290
H        -3.94446086    -1.38435119     1.08910116     0.00076809    -0.00315632     0.00008291
C        -3.81954254     0.11633700    -0.73132197     0.00043191    -0.00066480     0.00031199
C        -2.80001389     0.96642557    -0.55589983    -0.00039564     0.00095393    -0.00018278
H        -4.62108672     0.51410087    -1.31885148     0.00105233    -0.00021601    -0.00107461
H        -2.53918659     1.68764781    -1.35788380    -0.00015932    -0.00045641    -0.00067698
C        -1.69470122     0.92184353     0.44735343     0.00014378     0.00027431    -0.00084184
H        -1.46783964     0.17351135     1.23503013    -0.00175809     0.00161795    -0.00071487
N        -0.74449354     2.01062767     0.47915887     0.00050884    -0.00029107     0.00037672
H        -0.35779324     2.43185977     1.35158608    -0.00094825    -0.00083339     0.00082746
H        -0.34605209     2.40364855    -0.41428156     0.00009707     0.00059866     0.00090407
