6

C   -0.03921990    0.02592536    0.00799294    0.00007273    0.00004339   -0.00011032
N   -0.04533766   -0.05757468    1.31143539    0.00007954   -0.00015015    0.00005855
H    0.90839965   -0.05791086   -0.55143780   -0.00093733    0.00012649    0.00054476
H    0.87509139   -0.16713926    1.87739784   -0.00005314    0.00063084    0.00011301
H   -0.91008844    0.01186226    1.75129170   -0.00071576    0.00083919   -0.00011892
H   -0.98896548    0.03455962   -0.50462268   -0.00026571   -0.00002702   -0.00003786
