6

C       -0.03829678     0.06523396    -0.11231521
N       -0.04915853     0.00615524     1.43302113
H        0.70672988    -0.67670695    -0.48311171
H        0.86110050    -0.18052914     1.93796273
H       -0.67683723    -0.82680269     1.58978807
H       -0.96446603     0.15140982    -0.72799426
