12

C       -0.03722817     0.04657967    -0.13017894
N       -0.02878199    -0.01442281     1.44153418
H        0.88604775     0.23121900    -0.70896780
H        0.56126341    -0.81560425     1.75526460
H       -0.93749838     0.08261295     1.96393959
H       -0.87915655    -0.52265015    -0.59903570
C       -0.03741130     0.04659230    -0.12707298
N       -0.02842105    -0.01403592     1.43898797
H        0.88390646     0.23840245    -0.70737897
H        0.55260821    -0.82455107     1.75053698
H       -0.93435740     0.08882438     1.96301488
H       -0.87433450    -0.53262511    -0.59659999
