12

C       -0.03978397    -0.01956656    -0.12205249
N       -0.05469544    -0.12421793     1.42759133
H        0.78450526     0.67801563    -0.45828381
H        0.84576513    -0.11139914     1.95487034
H       -0.63249562     0.70713714     1.73547768
H       -0.97656045     0.01581312    -0.72395971
C       -0.03955973    -0.01967774    -0.11907319
N       -0.05525743    -0.12387724     1.42494076
H        0.77844111     0.68486380    -0.45357998
H        0.84689175    -0.11925801     1.95557417
H       -0.62390098     0.71271651     1.73106659
H       -0.97507990     0.00783491    -0.72362450
