     6
  Step:   300            Position(A)                                  Velocity(au)
C        -0.03369869     0.01348962     0.02825506    -0.00003417    -0.00001150    -0.00006256
N        -0.04764037    -0.05386889     1.29084985     0.00003157     0.00002020     0.00004069
H         0.27095829     0.93688391    -0.46669432     0.00101876    -0.00016283     0.00055302
H        -0.03171374    -0.95376173     1.78048722     0.00087171    -0.00019021    -0.00054485
H        -0.06931436     0.78217211     1.88210339    -0.00109747     0.00017586    -0.00027268
H        -0.31928837    -0.84726845    -0.57862500    -0.00082451     0.00003345     0.00044451
