     6
  Step:   120            Position(A)                                  Velocity(au)
C        -0.03191141     0.05636424    -0.07190647     0.00006104    -0.00004120     0.00058271
N        -0.05634860    -0.00182717     1.39386458    -0.00007125    -0.00004084    -0.00054089
H         0.65016564    -0.71199815    -0.51882561    -0.00136851    -0.00119365     0.00054329
H         0.82273702    -0.01579925     1.95534448    -0.00042092     0.00179582    -0.00006430
H        -0.60158872    -0.88505141     1.63720888     0.00140125    -0.00110182    -0.00037373
H        -0.92094518     0.29682060    -0.69447512     0.00065101     0.00155821     0.00046752
