     6
  Step:   120            Position(A)                                  Velocity(au)
C        -0.02390754     0.05150973     0.01717243     0.00010183    -0.00008614     0.00021110
N        -0.04587266    -0.04519380     1.30937894    -0.00003554     0.00002978    -0.00021545
H         0.59005222    -0.70317417    -0.57540795    -0.00103392    -0.00087803     0.00034258
H         0.72164165     0.30741148     1.93069117    -0.00076144     0.00135449    -0.00032651
H        -0.75270419    -0.64294794     1.80888453     0.00074791    -0.00130877    -0.00019979
H        -0.84957638     0.38316227    -0.67233221     0.00032785     0.00144485     0.00066222
