14

C       -5.82145991    -0.73771460     0.28044014
C       -4.56386139    -0.78639972    -0.22197768
H       -6.23755861     0.28500495     0.05442195
H       -6.15200089    -1.53468227     1.01046260
H       -3.94422470    -1.66554940     0.04604554
C       -3.96947034     0.53017149    -0.54535284
C       -2.71523853     0.57407070     0.10353397
H       -4.20413789     1.45890142    -1.16072646
H       -2.38168073    -0.32235446     0.55667609
C       -1.84438272     1.65477521     0.57473751
H       -2.33670307     2.54055552     1.04907585
N       -0.64897861     1.73241366     0.08272705
H        0.12513231     2.17459667     0.57379567
H       -0.43854568     0.91433977    -0.54679571
