     6
  Step:   120            Position(A)                                  Velocity(au)
C        -0.04104477     0.05649743     0.00253278    -0.00012585    -0.00007386     0.00033451
N        -0.03184191    -0.01399836     1.32704957     0.00011089    -0.00006672    -0.00031785
H         0.82304420     0.22916580    -0.68799089    -0.00023192     0.00160183     0.00058275
H         0.51641941    -0.85281216     1.68786682    -0.00116772    -0.00062307    -0.00011534
H        -0.87631591     0.16377991     1.92283488     0.00037083     0.00173180    -0.00017255
H        -0.74450264    -0.68862129    -0.50199853     0.00098757    -0.00090317     0.00013612
