    14
  Step:   600            Position(A)                                  Velocity(au)
C        -4.88639979    -0.61858875     0.95132548     0.00049900     0.00070211     0.00029125
C        -4.90696625    -0.28429166    -0.33234569    -0.00005397    -0.00052763    -0.00017822
H        -4.03296370    -0.19259073     1.60738724    -0.00019603     0.00055208     0.00018559
H        -5.76056647    -1.19131906     1.25633327     0.00157984    -0.00100458    -0.00127675
H        -5.50713305    -0.77292138    -1.17256723     0.00265048     0.00044454    -0.00000713
C        -4.02751195     0.56642197    -0.95913082    -0.00022431     0.00030264    -0.00009648
C        -2.87573476     1.30344972    -0.54801886     0.00055577     0.00009247    -0.00000107
H        -4.25890220     0.85384250    -2.01468433     0.00194900    -0.00295687     0.00031273
H        -2.22846650     1.84581274    -1.27846047    -0.00216060     0.00332653     0.00150321
C        -2.10099506     1.02770605     0.52874577    -0.00023979     0.00007081     0.00022971
H        -2.40888953     1.02054927     1.57425088     0.00217659    -0.00038659    -0.00013121
N        -0.77615021     1.13574190     0.58154547    -0.00074462    -0.00051321    -0.00022261
H        -0.43842604     0.88661319     1.53297040    -0.00081343    -0.00085602    -0.00065231
H        -0.55826286     0.63993078    -0.29032432    -0.00123366     0.00038172     0.00023758
