6

C       -0.03921501     0.04115719     0.02545882
N       -0.05247115    -0.10154155     1.29635367
H        0.92578965     0.14646201    -0.45543330
H        0.83600293    -0.11586644     1.81336968
H       -0.85169896     0.26992948     1.80881236
H       -0.92658381    -0.04967274    -0.59266161
