12

C       -0.03617963     0.04080335    -0.16568037
N       -0.04278340    -0.03827522     1.46371270
H        0.91534618     0.28067454    -0.71017827
H        0.71117164    -0.68110553     1.88683255
H       -0.89226777     0.19829866     2.00141549
H       -0.92152686    -0.42198002    -0.65203235
C       -0.03644925     0.04057000    -0.16310688
N       -0.04215110    -0.03783559     1.46147188
H        0.91295311     0.28884910    -0.70781575
H        0.70194161    -0.69036646     1.88152118
H       -0.89161287     0.20509984     2.00198466
H       -0.91613255    -0.43102358    -0.64917921
