12

C       -0.02620907     0.10898727    -0.01073545
N       -0.04638873    -0.06235814     1.33886107
H        0.78210496    -0.51540903    -0.60776751
H        0.86892496    -0.11843391     1.84665736
H       -0.94894376    -0.22600404     1.81016167
H       -0.95807095    -0.24208164    -0.63437110
C       -0.02588345     0.11018869    -0.01282929
N       -0.04644262    -0.06339641     1.34003767
H        0.78251535    -0.52045954    -0.60378218
H        0.86965775    -0.11307065     1.84804869
H       -0.94961040    -0.22614861     1.81106313
H       -0.96167883    -0.24213780    -0.63204941
