14

C   -6.00553875   -0.80362776   -0.15158815   -0.00024763    0.00022621    0.00004967
C   -4.67621281   -0.74253347    0.20032513    0.00033502    0.00006058    0.00004607
H   -6.57097997    0.03107778   -0.49995454    0.00132078    0.00043347   -0.00074254
H   -6.53651672   -1.69977182    0.04402810   -0.00100427   -0.00013194   -0.00002355
H   -4.20747423   -1.66830563    0.56926205    0.00004523   -0.00076708   -0.00013918
C   -3.95582429    0.45847447   -0.06186773   -0.00002991   -0.00017752    0.00003066
C   -2.57844625    0.57671353    0.19898858   -0.00020584   -0.00048405    0.00014585
H   -4.52631429    1.26277335   -0.46835732    0.00053249    0.00096103   -0.00122805
H   -2.02813171   -0.32799619    0.50584098    0.00086662   -0.00042002   -0.00026971
C   -1.79166038    1.74639805   -0.06437177    0.00031818    0.00013995   -0.00008645
H   -2.18928185    2.71002664   -0.52247960   -0.00137499   -0.00048672    0.00018279
N   -0.53170138    1.73298327    0.21968657   -0.00023590    0.00023180    0.00006126
H    0.02332894    2.57064295    0.18292488   -0.00013504   -0.00086755    0.00016066
H   -0.05265885    0.95889759    0.70203342    0.00100368    0.00085586   -0.00100559
