     6
  Step:   120            Position(A)                                  Velocity(au)
C        -0.03105370     0.06227108    -0.00448571     0.00004349     0.00016062    -0.00030685
N        -0.03699245    -0.09958367     1.34265435     0.00005420    -0.00004665     0.00018592
H         0.81537810    -0.33628782    -0.69857163    -0.00015528    -0.00178180     0.00049567
H         0.77553574     0.32147748     1.85139438    -0.00056250     0.00102047     0.00008611
H        -0.96207422    -0.20471342     1.81675351    -0.00017429    -0.00126994     0.00011237
H        -0.95767710     0.19158101    -0.68208476    -0.00037932     0.00076563     0.00037876
