6

C       -0.00846439     0.01375794     0.01924932
N       -0.08052062    -0.05379305     1.29806010
H        0.17033906    -0.90003959    -0.55074075
H       -0.00133668     0.79054596     1.86919228
H       -0.02962747    -0.93903467     1.81319510
H       -0.13251827     0.96232334    -0.50727851
