12

C       -0.00921959     0.12416827    -0.01969436
N       -0.04230997    -0.10546379     1.33826697
H        0.65027055    -0.64718897    -0.55860057
H        0.78619431     0.25202686     1.87308999
H       -0.96023917    -0.22226251     1.83200017
H       -0.99135707    -0.06638142    -0.61679202
C       -0.00872966     0.12454229    -0.02015911
N       -0.04199026    -0.10573729     1.33817214
H        0.64628782    -0.65255585    -0.55528985
H        0.78107209     0.25752278     1.87365779
H       -0.96000313    -0.22691731     1.83232275
H       -0.99276910    -0.06251184    -0.61413729
