6

C       -0.13228683    -0.08877687    -0.10426144
N       -0.00074267     0.06868722     1.38274258
H        0.77914979    -0.78323162    -0.94449574
H       -0.31872732    -0.49294190     2.22462232
H        0.72595998     0.23241343     2.29865064
H       -0.81248765     0.47687316    -0.65917727
