12

C       -0.03818699     0.05766803    -0.09882748
N       -0.03087292    -0.01439736     1.41544877
H        0.90031209     0.17684328    -0.69775079
H        0.53138953    -0.84336441     1.71044546
H       -0.92066964     0.07354906     1.96813661
H       -0.83991131    -0.56390318    -0.58075157
C       -0.03842307     0.05734045    -0.09535799
N       -0.03049156    -0.01405541     1.41243957
H        0.89757062     0.18501711    -0.69569362
H        0.52309145    -0.85151784     1.70655217
H       -0.91787912     0.08008451     1.96703006
H       -0.83414866    -0.57130741    -0.57733458
