6

C       -0.03842307     0.05734045    -0.09535799
N       -0.03049156    -0.01405541     1.41243957
H        0.89757062     0.18501711    -0.69569362
H        0.52309145    -0.85151784     1.70655217
H       -0.91787912     0.08008451     1.96703006
H       -0.83414866    -0.57130741    -0.57733458
