6

C       -0.04021938     0.01303654     0.02206734
N       -0.04386986    -0.05152404     1.29290071
H        0.12795824    -0.91820857    -0.53316433
H       -0.02226488     0.78421514     1.88154780
H       -0.02189722    -0.95495995     1.78385570
H       -0.20786537     0.97984610    -0.46976900
