     6
  Step:   300            Position(A)                                  Velocity(au)
C        -0.02937707     0.00235152     0.02936141    -0.00001541     0.00002016    -0.00002511
N        -0.03044582    -0.05257715     1.28565615     0.00007863     0.00005142     0.00004761
H         0.07067932    -0.86099427    -0.63395346    -0.00162258     0.00014014    -0.00023438
H        -0.30870134     0.77411094     1.84263579    -0.00224642    -0.00085233     0.00008412
H        -0.17421841    -0.88436052     1.87237645     0.00123414    -0.00000439     0.00035152
H        -0.02757397     1.00409620    -0.40481499     0.00172571    -0.00023826    -0.00056356
