     6
  Step:   120            Position(A)                                  Velocity(au)
C        -0.02165432    -0.04214129     0.00378189     0.00010668    -0.00003303    -0.00029990
N        -0.04223296    -0.03934353     1.32218567     0.00000430     0.00000911     0.00017875
H         0.69397890     0.67178613    -0.54614523    -0.00055026     0.00153513     0.00073097
H         0.71033162    -0.57626599     1.82833241    -0.00084407    -0.00128997    -0.00003678
H        -0.83214716     0.36786007     1.86781128     0.00050502     0.00140818     0.00001204
H        -0.94017417    -0.08426085    -0.67656844    -0.00044164    -0.00138636     0.00038331
