6

C       -0.05681090     0.00907527     0.02408186
N       -0.02449393    -0.05490587     1.29253550
H        0.18380835     0.99167634    -0.39634603
H       -0.00626780    -0.95368429     1.77594129
H       -0.05836265     0.81473219     1.84747472
H       -0.31477460    -0.86764256    -0.58352054
