     6
  Step:   120            Position(A)                                  Velocity(au)
C        -0.03528887     0.05743324    -0.20300793     0.00002442    -0.00000204     0.00013353
N        -0.04663698    -0.00253226     1.50622334    -0.00004381     0.00022730    -0.00005471
H         0.86824484    -0.40974246    -0.63161946    -0.00060853    -0.00144852     0.00067477
H         0.84077635    -0.29739511     1.92322355    -0.00009298    -0.00016132    -0.00041485
H        -0.84047607    -0.65893665     1.82815137     0.00103125    -0.00225751    -0.00114602
H        -1.01290549     0.04709123    -0.73967109    -0.00001192     0.00073303     0.00005531
