     6
  Step:   300            Position(A)                                  Velocity(au)
C        -0.02850548     0.01441193     0.02958351     0.00002261     0.00002772     0.00011729
N        -0.04978249    -0.06113214     1.28965081     0.00000122    -0.00000480    -0.00007008
H         0.88746158    -0.09115769    -0.55460345    -0.00017331    -0.00132994    -0.00000376
H         0.78797499    -0.00809213     1.88343931    -0.00000758     0.00130714    -0.00037053
H        -0.91626173    -0.06360154     1.83394972    -0.00017413    -0.00131578    -0.00021532
H        -0.94064439     0.17085356    -0.54472855     0.00006870     0.00107489     0.00016592
