    14
  Step:   600            Position(A)                                  Velocity(au)
C        -5.03518204    -0.39339419     1.00195381    -0.00014399    -0.00002970    -0.00019433
C        -4.73626319    -0.38068553    -0.26460414     0.00080568    -0.00006945     0.00020832
H        -4.85164992     0.43738160     1.72330528    -0.00107350     0.00170017    -0.00090896
H        -5.63450228    -1.23688053     1.46710027     0.00085701     0.00015598     0.00060954
H        -5.15811799    -1.10497677    -0.97535512     0.00305661    -0.00101400    -0.00091827
C        -3.94132482     0.67428659    -1.04270446    -0.00025952     0.00044104     0.00029223
C        -2.84365048     1.18709454    -0.59705333    -0.00000339    -0.00000502     0.00028861
H        -4.45792595     1.11598473    -2.07600664     0.00073656    -0.00146009    -0.00262002
H        -2.46211408     1.86094935    -1.37710854     0.00046568     0.00209695     0.00099343
C        -2.07339198     0.81852293     0.42977964    -0.00026182     0.00035417    -0.00027805
H        -2.53086357     0.16375126     1.21847184     0.00167067     0.00073567     0.00408783
N        -0.85741620     1.19358606     0.65537353    -0.00060323    -0.00074366    -0.00039984
H        -0.71707409     0.98742360     1.64737452     0.00236557     0.00141547     0.00006238
H        -0.25185269     1.12103396    -0.09021595    -0.00132784    -0.00153039     0.00047542
