     6
  Step:   300            Position(A)                                  Velocity(au)
C        -0.05817353     0.00389139     0.02375491     0.00009194    -0.00013172     0.00010743
N        -0.02288302    -0.05033412     1.29327239    -0.00031309     0.00005175    -0.00016520
H         0.25463862     0.96023741    -0.40973743    -0.00101843     0.00051979     0.00071604
H        -0.06293100    -0.94528650     1.78363947     0.00057719     0.00043946     0.00060294
H        -0.01091141     0.82564792     1.83717454     0.00276500    -0.00013616     0.00041555
H        -0.38253922    -0.85729023    -0.57385569     0.00093152     0.00002735    -0.00071891
