6

C       -0.06864675    -0.06275700    -0.25280037
N       -0.02846979    -0.01359771     1.52789629
H       -0.95837305    -0.00499517    -0.79634272
H       -0.01436424     1.05584953     1.93868329
H       -0.14146994    -1.00658175     1.94764048
H        1.11455853     0.22200978    -0.41708344
