6

C       -0.03394793     0.07087907    -0.21566496
N       -0.04507116     0.01826929     1.52447058
H        0.87272542    -0.41871407    -0.59444667
H        0.79869695    -0.52848990     1.78693894
H       -0.84856151    -0.60898300     1.74474165
H       -1.00493331    -0.21205402    -0.65988775
