12

C       -0.04484355     0.09662916     0.01085416
N       -0.04597552    -0.07626113     1.32097263
H        0.85491299    -0.11745282    -0.67035910
H        0.80398225    -0.40453929     1.82876564
H       -0.87435132     0.25964671     1.86395719
H       -0.82423798    -0.49911507    -0.61635690
C       -0.04562188     0.09755909     0.00925265
N       -0.04577299    -0.07691155     1.32212061
H        0.86033302    -0.11413866    -0.66791958
H        0.80279921    -0.40965207     1.82724371
H       -0.87325269     0.26737905     1.86365973
H       -0.82311340    -0.50709157    -0.61384611
