     6
  Step:   120            Position(A)                                  Velocity(au)
C        -0.03676391     0.06908798     0.00196298    -0.00003484     0.00026161    -0.00034877
N        -0.04226162    -0.08229897     1.33845355     0.00005773    -0.00013537     0.00030490
H         0.85124275    -0.13078867    -0.70720354     0.00097940    -0.00083534     0.00018672
H         0.86216634    -0.05583634     1.83258594    -0.00000482     0.00014803    -0.00027653
H        -0.95455892    -0.03525767     1.83465739    -0.00056440     0.00024289    -0.00011777
H        -0.94642831    -0.12750200    -0.69100249    -0.00079727    -0.00079185     0.00012653
