     6
  Step:   300            Position(A)                                  Velocity(au)
C        -0.03815968    -0.00227154     0.02236586    -0.00006395    -0.00005617     0.00010228
N        -0.04914012    -0.03170716     1.29649551     0.00003271     0.00008751    -0.00003964
H         0.91465082     0.02159835    -0.50885886     0.00015177    -0.00131283    -0.00009604
H         0.80632593    -0.14875792     1.84841906     0.00002181     0.00115200     0.00006101
H        -0.87988202    -0.12440677     1.89568781     0.00002406    -0.00181794    -0.00025900
H        -0.91645049     0.04949240    -0.62625858     0.00010992     0.00143192    -0.00037383
