6

C   -0.03307510    0.00297772    0.00103065   -0.00000053   -0.00007128   -0.00008144
N   -0.04158206   -0.05588363    1.30635171   -0.00009235    0.00011008    0.00009435
H    0.90496150    0.08599239   -0.50618104   -0.00054881    0.00021292    0.00022220
H    0.83579401   -0.07395711    1.86503483    0.00134579   -0.00061687    0.00091953
H   -0.97281554   -0.01326631    1.87037128    0.00064701   -0.00042419   -0.00121578
H   -1.00891414    0.07254924   -0.50298806   -0.00015433    0.00014779   -0.00026663
