12

C       -0.04845486    -0.02221294    -0.00211250
N       -0.04648103    -0.04901523     1.32165026
H        0.80312164    -0.31422009    -0.67705324
H        0.67173342     0.46245355     1.89579927
H       -0.75257612    -0.58947585     1.88925150
H       -0.71190199     0.71728710    -0.55689392
C       -0.04874197    -0.02201567     0.00029234
N       -0.04644846    -0.04913213     1.31944951
H        0.79907751    -0.32190009    -0.67406379
H        0.66705912     0.47031534     1.89495811
H       -0.74677907    -0.59561036     1.88613145
H       -0.70601188     0.72251361    -0.55399602
