14

C       -4.72129681    -0.64328026    -0.87536561
C       -4.75151679    -0.47485961     0.44322109
H       -4.51494458     0.28904956    -1.44166135
H       -5.19345326    -1.28972087    -1.58338166
H       -4.92514120    -1.25206012     1.22610534
C       -4.20423923     0.77098021     0.83373187
C       -3.10768501     1.46857883     0.45205019
H       -4.99706890     1.30796327     1.38001541
H       -2.85795959     2.41036493     0.91356697
C       -2.02323916     0.96601316    -0.40961253
H       -2.20071770     0.58743933    -1.41624509
N       -0.75549984     0.99546881     0.00792651
H        0.14457748     0.64729188    -0.47708232
H       -0.81381134     1.23410398     1.01230777
