6

C       -0.05181295    -0.00639148     0.02557745
N       -0.05177976    -0.04660610     1.29100218
H        0.14915229     0.97949167    -0.39574231
H        0.09353633    -0.88739490     1.84855154
H        0.16949260     0.80349903     1.83547196
H       -0.28816409    -0.84157208    -0.64125071
