12

C       -0.05420733    -0.04654374    -0.03185881
N       -0.04212473    -0.04413521     1.35306166
H        0.90075411    -0.04312063    -0.66618950
H        0.84953647     0.17635508     1.87142802
H       -0.92783370    -0.26966062     1.84783900
H       -0.80408826     0.63457542    -0.58402250
C       -0.05481537    -0.04720665    -0.03197102
N       -0.04196871    -0.04364695     1.35243639
H        0.90127343    -0.04727391    -0.66356933
H        0.84524621     0.18189510     1.87168641
H       -0.92479486    -0.27776285     1.84993055
H       -0.79827886     0.64240502    -0.57896654
