14

C       -5.18975835    -0.48686472    -0.89163529
C       -4.50251715    -0.71886441     0.20621345
H       -5.70781385     0.46868611    -1.15615905
H       -5.44908714    -1.26611966    -1.56170632
H       -4.19268305    -1.68598672     0.61469518
C       -3.99563453     0.37906800     1.15326056
C       -3.03254632     1.28582711     0.62848366
H       -4.46914036     0.42458567     2.12399567
H       -3.06670710     2.30224462     1.21598054
C       -1.97288212     0.91762530    -0.24122316
H       -1.99404284    -0.01343462    -0.87393888
N       -0.80984562     1.59227385    -0.28328889
H       -0.26864185     1.26332726    -1.08965744
H       -0.82084926     2.61475473    -0.51318174
