6

C       -0.03354631     0.00627000     0.01268259
N       -0.04689045    -0.05171624     1.30107084
H        0.92085542     0.11029376    -0.50541416
H        0.80107346    -0.15799131     1.86026429
H       -0.90791429     0.05945232     1.84359587
H       -0.97561454    -0.03757612    -0.53766343
