    14
  Step:   600            Position(A)                                  Velocity(au)
C        -5.36280432    -1.15624337    -0.55695724     0.00000461     0.00047726    -0.00000399
C        -5.05176313     0.13211294    -0.21729938    -0.00002842    -0.00060693    -0.00040250
H        -4.87408614    -2.06849991    -0.20019357     0.00283747     0.00111640     0.00171920
H        -6.13802343    -1.26937891    -1.36891643     0.00037437    -0.00001564     0.00062136
H        -5.47248860     1.00525851    -0.55678855     0.00048934    -0.00054956    -0.00189086
C        -3.95877496     0.35942182     0.90329435    -0.00084386     0.00036173     0.00039241
C        -2.61530759     0.89673746     0.88115096     0.00101192     0.00005541    -0.00017286
H        -4.26739478    -0.30045424     1.66829660    -0.00062054     0.00111651    -0.00114285
H        -1.81896271     0.49379976     1.76328283    -0.00234085    -0.00410747    -0.00078583
C        -1.93942487     1.43585852    -0.32479956     0.00009552    -0.00034500     0.00082485
H        -2.52781919     1.34462402    -1.16621096    -0.00126551    -0.00139686     0.00196831
N        -0.66691380     1.49697768    -0.20280708    -0.00009636     0.00023992    -0.00049972
H        -0.01223190     1.60130147    -0.99331340    -0.00032949     0.00198951    -0.00111850
H        -0.04668927     1.15697158     0.51917341    -0.00066282    -0.00080143    -0.00002791
