6

C       -0.05034769     0.02482358     0.02268827
N       -0.04548853    -0.05526640     1.29583287
H        0.14253487    -0.91036248    -0.50664814
H        0.14699675     0.74244046     1.90489971
H       -0.02532813    -0.98263802     1.73646042
H       -0.24505356     0.95298569    -0.52037495
