6

C       -0.03657438    -0.02357990    -0.22368422
N       -0.03825536    -0.13888327     1.51804749
H        0.94020643     0.21917614    -0.67428370
H        0.69381806     0.53436770     1.81119812
H       -0.94023956     0.25208236     1.90427327
H       -0.93929138     0.53553460    -0.57904728
