     6
  Step:   300            Position(A)                                  Velocity(au)
C        -0.02076055     0.02350240     0.01619410    -0.00004655     0.00004620     0.00013677
N        -0.05210570    -0.05463309     1.30015053     0.00017999     0.00000144    -0.00013930
H         0.29804224     0.93946423    -0.48679842    -0.00086808     0.00003132    -0.00052171
H        -0.10261738    -0.99181276     1.71230278    -0.00197754     0.00016636     0.00019935
H        -0.14925757     0.76022950     1.90577946    -0.00002872    -0.00050197     0.00035524
H        -0.28762974    -0.89851637    -0.49955954     0.00092787    -0.00026632     0.00027317
