     6
  Step:   300            Position(A)                                  Velocity(au)
C        -0.00668348     0.01662087     0.02115798    -0.00006606     0.00014187     0.00011270
N        -0.08633411    -0.05659072     1.30021650     0.00025934    -0.00003442    -0.00012377
H         0.31320689     0.94370021    -0.44865208     0.00004454    -0.00008326    -0.00069970
H         0.09178899    -0.97450203     1.71691655    -0.00145439    -0.00036637    -0.00003664
H        -0.02071546     0.79961071     1.86227872    -0.00137261    -0.00017669     0.00016550
H        -0.31785963    -0.85024208    -0.55890399    -0.00003422    -0.00058596     0.00094792
