     6
  Step:   300            Position(A)                                  Velocity(au)
C        -0.03890481     0.01771078     0.02276355     0.00000838    -0.00001704     0.00015065
N        -0.04278234    -0.05671314     1.29507675    -0.00001868     0.00001346    -0.00010006
H         0.08311642    -0.87237181    -0.59227546     0.00127100     0.00020355    -0.00007047
H        -0.05247618     0.76113477     1.91559853     0.00146883     0.00005831    -0.00011533
H        -0.02479445    -0.94253871     1.80498061    -0.00131097    -0.00006216    -0.00017604
H        -0.16067308     0.96105676    -0.50436001    -0.00126915    -0.00018364    -0.00004288
