     6
  Step:   120            Position(A)                                  Velocity(au)
C        -0.03439904    -0.00847978    -0.19828326     0.00005193    -0.00013236     0.00022224
N        -0.05464800    -0.12676677     1.49329473    -0.00011702    -0.00003939    -0.00018516
H         0.85105507     0.57839827    -0.58792837    -0.00073863     0.00191844     0.00083818
H         0.84691231    -0.01262555     1.98551114     0.00037724    -0.00066995    -0.00004365
H        -0.74457320     0.60968851     1.83785720     0.00145854     0.00150772    -0.00084984
H        -0.99701809     0.01740915    -0.73197695    -0.00008971    -0.00063162    -0.00001983
