14

C   -6.00692579   -0.68412430   -0.20498403   -0.00013352    0.00010774   -0.00011077
C   -4.70253375   -0.76081156    0.20771576    0.00035045    0.00010012    0.00017943
H   -6.36053274    0.17739904   -0.84874390   -0.00011890    0.00014523    0.00005070
H   -6.66163162   -1.56142702   -0.00404588    0.00017148   -0.00105676    0.00088952
H   -4.34992036   -1.59118802    0.83240329   -0.00027290   -0.00059140   -0.00001946
C   -3.85395456    0.34956098   -0.07091092    0.00004816    0.00006898   -0.00014089
C   -2.54806968    0.49045031    0.32778442   -0.00018264   -0.00010814   -0.00013859
H   -4.40059265    1.16873595   -0.63960132    0.00037385   -0.00007843    0.00003913
H   -2.02012457   -0.23994838    1.00308964   -0.00112319    0.00075904   -0.00076726
C   -1.83143042    1.70387261   -0.02401846    0.00007052   -0.00001702    0.00016201
H   -2.39466132    2.51050814   -0.45306204   -0.00087297   -0.00054754    0.00075520
N   -0.57595374    1.81384990    0.13459394   -0.00005146   -0.00009533   -0.00012963
H   -0.13176431    2.73959248   -0.09674835   -0.00004620    0.00099287   -0.00042648
H    0.07436325    1.13618602    0.54285406    0.00078124   -0.00010572    0.00186177
