     6
  Step:   300            Position(A)                                  Velocity(au)
C        -0.03466647     0.01460146     0.02473783    -0.00009744    -0.00003289     0.00018645
N        -0.03263838    -0.04861330     1.28896237     0.00014004     0.00000184    -0.00018710
H         0.18693555     0.95042137    -0.49139920    -0.00153672    -0.00015928    -0.00005093
H        -0.29474213    -0.93351181     1.74621311    -0.00263390     0.00085526     0.00027337
H        -0.10015652     0.75768246     1.92115530     0.00121995    -0.00048892     0.00051203
H        -0.13832968    -0.94281878    -0.49058071     0.00216576     0.00015920    -0.00035613
