6

C       -0.02214783     0.02804004     0.03013601
N       -0.03559129    -0.05804078     1.28735102
H        0.22883825     0.92471134    -0.54044192
H       -0.32513210    -0.94065466     1.74135408
H       -0.14206963     0.72020987     1.94078310
H       -0.21605586    -0.90161772    -0.49825002
