6

C       -0.07430226     0.01200480     0.01635317
N        0.01575848    -0.05926016     1.30467835
H        0.09509212    -0.84025531    -0.64578827
H       -0.12286001     0.78711460     1.86867095
H       -0.26592089    -0.93133501     1.76360558
H       -0.25284495     0.99516728    -0.41958366
