     6
  Step:   300            Position(A)                                  Velocity(au)
C        -0.03354631     0.00627000     0.01268259    -0.00000305     0.00001651    -0.00005769
N        -0.04689045    -0.05171624     1.30107084     0.00001210    -0.00007073     0.00005081
H         0.92085542     0.11029376    -0.50541416    -0.00024657     0.00009728    -0.00023472
H         0.80107346    -0.15799131     1.86026429    -0.00020278     0.00028750     0.00028414
H        -0.90791429     0.05945232     1.84359587     0.00011899     0.00038308     0.00015472
H        -0.97561454    -0.03757612    -0.53766343     0.00019850     0.00001822    -0.00022282
