12

C       -0.03152589     0.06974737    -0.18215889
N       -0.04229891     0.01671814     1.49402458
H        0.92750001    -0.14374929    -0.69710631
H        0.68535151    -0.73141814     1.65937135
H       -0.94118851    -0.33982028     1.86775897
H       -0.92112977    -0.51823630    -0.52887961
C       -0.03162817     0.06979883    -0.18100170
N       -0.04181253     0.01673167     1.49315526
H        0.92958118    -0.13779243    -0.69821895
H        0.67844653    -0.73587042     1.65249888
H       -0.94505076    -0.33438955     1.86871264
H       -0.91798381    -0.52597284    -0.52355685
