6

C       -0.03366751     0.01954717     0.03024189
N       -0.04465538    -0.05823209     1.28994151
H        0.25505844     0.93832162    -0.48551974
H       -0.06380172    -0.95824175     1.78243935
H       -0.07237206     0.76232588     1.89787881
H       -0.31010056    -0.83586626    -0.58857751
