6

C       -0.03574911     0.07143278    -0.21705810
N       -0.04475650     0.01975228     1.52680117
H        0.89319644    -0.38605809    -0.61357756
H        0.80173496    -0.53050926     1.77448983
H       -0.86794810    -0.58147975     1.73144611
H       -0.99197385    -0.29742423    -0.63082909
