6

C       -0.05052379     0.06546257    -0.00150026
N        0.00026972    -0.21186031     1.29152251
H       -0.37470580     0.47356865    -0.93540033
H       -0.04461748     0.45888910     2.11222285
H       -0.99736629    -0.43349140     1.59980665
H        0.80189788     0.99516000     0.18579411
