    14
  Step:   600            Position(A)                                  Velocity(au)
C        -5.39295413    -1.35517095    -0.21960421    -0.00045662    -0.00017694    -0.00010052
C        -5.04050399    -0.04759357    -0.16752521    -0.00023593    -0.00049776    -0.00071520
H        -5.22348563    -1.94806786     0.63377131    -0.00146739     0.00001393     0.00171852
H        -6.17426265    -1.69708833    -0.86452572    -0.00020459    -0.00140393    -0.00028437
H        -5.39723074     0.76219555    -0.86584710    -0.00224990    -0.00126153    -0.00080223
C        -3.87110470     0.25839593     0.66055798    -0.00037207    -0.00056263    -0.00016109
C        -2.87332893     0.92224867     0.04880411     0.00067900     0.00128506     0.00106259
H        -3.88336840    -0.37396965     1.52971227     0.00337878     0.00285116     0.00064633
H        -3.25356030     1.68027405    -0.78263012     0.00040702     0.00107310     0.00077161
C        -1.56655408     1.19969435     0.43899562     0.00060844     0.00052515     0.00015045
H        -1.16587439     1.07016535     1.35962815    -0.00121256    -0.00122755    -0.00071544
N        -0.76620034     1.97214893    -0.27237214     0.00009712    -0.00056266    -0.00016933
H         0.23825988     1.95065726    -0.06935728    -0.00011228    -0.00112139    -0.00366627
H        -1.10571778     2.14287899    -1.21255918    -0.00254374     0.00206878     0.00186993
