6

C       -0.05620362     0.09436597    -0.02008371
N       -0.03858441    -0.06039902     1.34315024
H        0.91313782     0.01667502    -0.63927981
H        0.75398283    -0.57844879     1.81557438
H       -0.88882504     0.21408806     1.87361582
H       -0.78531145    -0.60723282    -0.58343893
