     6
  Step:   300            Position(A)                                  Velocity(au)
C        -0.02415173     0.00843929     0.02245970    -0.00009597    -0.00009915     0.00011596
N        -0.05747088    -0.05252259     1.29300669     0.00028007     0.00001735    -0.00016848
H         0.18461367    -0.89612008    -0.56504465    -0.00119026     0.00006227    -0.00067771
H        -0.00146007     0.80815680     1.85740937    -0.00286125     0.00010468     0.00034244
H        -0.09573412    -0.95301160     1.77043448    -0.00002578     0.00040448     0.00066713
H        -0.21393286     1.00050725    -0.40645686     0.00132892     0.00036895     0.00062758
