6

C   -0.04270884    0.00306134    0.02690926   -0.00001941    0.00007685   -0.00020555
N   -0.04895929   -0.04174181    1.29340864    0.00003561   -0.00002210    0.00016992
H    0.94659526    0.00719283   -0.52898716    0.00069048   -0.00036186   -0.00002076
H    0.88374926   -0.15470264    1.84008112   -0.00014114    0.00006632   -0.00015096
H   -0.89805021   -0.09819415    1.82731170   -0.00035172   -0.00011275    0.00048154
H   -0.95595508    0.11950542   -0.54067816   -0.00046113   -0.00020041   -0.00022171
