12

C       -0.04249211    -0.01896515    -0.13973419
N       -0.05489741    -0.12911126     1.44527655
H        0.82330462     0.62129917    -0.45324914
H        0.87242902    -0.02804015     1.92696182
H       -0.67493564     0.67450022     1.73115125
H       -0.96451143     0.08261663    -0.73180547
C       -0.04243447    -0.01908625    -0.13718448
N       -0.05539933    -0.12895460     1.44310904
H        0.81922946     0.62887513    -0.44877368
H        0.87421247    -0.03470661     1.92746328
H       -0.66713468     0.68031357     1.72598563
H       -0.96373264     0.07515980    -0.73187881
