     6
  Step:   120            Position(A)                                  Velocity(au)
C        -0.03504545     0.01838675    -0.05444319    -0.00002888    -0.00001899     0.00069771
N        -0.03833009    -0.03869272     1.37030722     0.00006126    -0.00000735    -0.00059789
H         0.81042011     0.46843376    -0.64351394    -0.00072794     0.00138081     0.00044000
H         0.60323666    -0.73897847     1.84097558    -0.00157913    -0.00099473    -0.00071023
H        -0.81233118     0.35054194     1.96515501     0.00082343     0.00142436    -0.00019880
H        -0.86403144    -0.43119647    -0.66408545     0.00097652    -0.00148198     0.00046357
