     6
  Step:   300            Position(A)                                  Velocity(au)
C        -0.04005610     0.01339644     0.02348271    -0.00001083     0.00000968     0.00019202
N        -0.04209180    -0.05900133     1.29363125     0.00000227    -0.00001694    -0.00013211
H         0.88430466     0.02657062    -0.54539029    -0.00012775     0.00110942    -0.00006656
H         0.80621324    -0.10150161     1.86190345    -0.00007792    -0.00114226    -0.00011648
H        -0.88421125     0.00169745     1.87812429     0.00012385     0.00133231     0.00005911
H        -0.95700400     0.06372759    -0.55917166     0.00017934    -0.00117940    -0.00032837
