12

C       -0.03466723    -0.05047096     0.01543058
N       -0.04841334    -0.10632362     1.31558788
H        0.82751375     0.37319222    -0.60555501
H        0.79886975     0.26784458     1.77834017
H       -0.88410049     0.24005369     1.82843007
H       -0.86936212     0.52805435    -0.57492958
C       -0.03484034    -0.05056678     0.01642148
N       -0.04846674    -0.10552235     1.31438548
H        0.82272993     0.37112407    -0.60228644
H        0.80240544     0.26616234     1.77849033
H       -0.88571354     0.23481628     1.82610322
H       -0.86369608     0.52704915    -0.57112001
