14

C       -4.69246940    -1.17719043    -0.60001263
C       -5.13097522    -0.04227599    -0.14905697
H       -3.79239862    -1.69219605    -0.10789857
H       -5.13344095    -1.71088310    -1.34580523
H       -5.96028178     0.51133754    -0.64879955
C       -4.42828599     1.01414030     0.65309229
C       -3.03788768     1.29277759     0.67027267
H       -4.96395531     1.43081384     1.52113726
H       -2.86893457     2.28522403     0.94083132
C       -1.76760436     0.73666654     0.09222064
H       -1.80536262    -0.29457248     0.08887038
N       -0.59086379     1.24218503    -0.19819692
H        0.36157773     0.80423466    -0.32415367
H       -0.51340625     2.30846989    -0.29934572
