    14
  Step:   600            Position(A)                                  Velocity(au)
C        -5.96172406    -0.62545556    -0.01526473     0.00014546     0.00018294    -0.00017844
C        -4.69184337    -0.82965539     0.40352446     0.00059818    -0.00021245     0.00024516
H        -6.01481353     0.47905683    -0.48572023     0.00268399     0.00040909     0.00162499
H        -6.78170636    -1.30467732    -0.00524383    -0.00031153    -0.00002015    -0.00242000
H        -4.41952957    -1.76068999     0.95071573     0.00130863    -0.00047010    -0.00166668
C        -3.89541550     0.32812349    -0.00481225    -0.00006284     0.00031934     0.00094464
C        -2.50061200     0.47069298    -0.07575484    -0.00018631     0.00082971    -0.00013234
H        -4.63762230     1.09077326    -0.33687197     0.00214714    -0.00020235    -0.00286083
H        -1.75031139    -0.10260456     0.50430901     0.00074546     0.00031644     0.00123074
C        -1.63161807     1.58950168    -0.50898037    -0.00028980    -0.00004357    -0.00000426
H        -1.89623617     2.17267291    -1.48093959     0.00342088    -0.00134809    -0.00161093
N        -0.79467955     1.92676574     0.46595675    -0.00066235    -0.00068418    -0.00035309
H        -0.05969522     2.64013609     0.40614918    -0.00139774    -0.00125634     0.00119081
H        -0.76339470     1.53076866     1.38526508    -0.00183142    -0.00074229    -0.00100519
