     6
  Step:   120            Position(A)                                  Velocity(au)
C        -0.04906525    -0.02677412    -0.00222049    -0.00009735    -0.00004885    -0.00032029
N        -0.04028935    -0.05331442     1.33099638     0.00005176     0.00004861     0.00017902
H         0.84929389    -0.18301594    -0.69463138     0.00028817    -0.00141350     0.00037477
H         0.77091656     0.34121629     1.86943280    -0.00064447     0.00130985     0.00007336
H        -0.88745678    -0.40271846     1.83842569     0.00027057    -0.00165362     0.00017057
H        -0.80115729     0.63464006    -0.59072253     0.00052640     0.00166383     0.00071021
