    14
  Step:   600            Position(A)                                  Velocity(au)
C        -5.51327511    -1.31449221    -0.29295063     0.00101590     0.00061031     0.00064084
C        -5.11673629    -0.14824641     0.19223263    -0.00052884     0.00034307    -0.00074662
H        -4.90777115    -2.09088515    -0.68101853     0.00216919    -0.00135469     0.00261989
H        -6.60155638    -1.55791901    -0.21397820     0.00148289     0.00029007    -0.00089132
H        -5.89896308     0.47883230     0.61702407     0.00051080    -0.00012604    -0.00008335
C        -3.93302922     0.53864396     0.40263193     0.00019725    -0.00040349     0.00054423
C        -2.64351317     0.42105074    -0.13337167    -0.00062689    -0.00031008    -0.00118492
H        -3.93665263     1.46423562     0.98948183     0.00083276    -0.00050456     0.00008109
H        -2.42402271    -0.01423343    -1.07361034    -0.00089247     0.00053533     0.00000538
C        -1.77648726     1.62523142     0.27643061     0.00005629     0.00020545     0.00053756
H        -2.11202518     1.84115600     1.30918885     0.00034945     0.00144004    -0.00017906
N        -0.56850156     1.81320222    -0.05326369    -0.00034691    -0.00035000    -0.00016306
H         0.07634746     2.43052385     0.38237705    -0.00045029    -0.00279594     0.00131069
H        -0.06599706     1.51999447    -0.87748879    -0.00053651     0.00207365     0.00189216
