6

C       -0.03156476     0.04671040    -0.18929453
N       -0.05418569    -0.02924096     1.48241718
H        0.86414270    -0.44378071    -0.66069254
H        0.88444182    -0.01457073     2.00243097
H       -0.84292420    -0.60070936     1.86869677
H       -0.98947689     0.23901552    -0.66293359
