6

C        1.38152888    -0.59482001     1.39144881
N        0.34172733    -0.26112297     0.97191767
H      -12.33877850     6.13155593    -5.78193779
H       -0.52418959    -0.59557106     0.60731435
H        2.55332137    -0.88843366     1.94352034
H      -12.11441891     5.39918613    -5.96358351
