     6
  Step:   120            Position(A)                                  Velocity(au)
C        -0.04880193    -0.06919467    -0.02186131    -0.00010228    -0.00016043    -0.00038196
N        -0.03834876    -0.05926757     1.34301690     0.00006331     0.00015941     0.00022207
H         0.88489572     0.27471143    -0.62139291     0.00067436    -0.00022461     0.00052755
H         0.83847405     0.15608990     1.84704187    -0.00011002     0.00015017     0.00011317
H        -0.96991299    -0.04746783     1.82080100    -0.00032262    -0.00120994     0.00015683
H        -0.85194902     0.59503375    -0.55695030     0.00009727     0.00098077     0.00066789
