6

C       -0.02092795     0.10321782     0.02766481
N       -0.09319428    -0.06821060     1.24596148
H       -0.30382739    -1.60663613     0.01133481
H        0.48129382     0.61165694     1.61303458
H        0.14386023    -1.06684832     1.49493130
H        0.00984628     1.10999692     0.12846871
