14

C       -4.77300712    -0.66421978    -0.91826123
C       -4.78405892    -0.38341506     0.36239364
H       -4.42510758     0.09110434    -1.71728472
H       -5.26817613    -1.57221960    -1.27275395
H       -5.10610528    -0.97090687     1.20529173
C       -4.20229870     0.86023207     0.82898374
C       -3.02321479     1.45616354     0.49313646
H       -4.97936841     1.37939306     1.51277723
H       -3.01175294     2.66103467     0.70735970
C       -2.01853132     0.86821522    -0.15312466
H       -2.32021791     0.18723050    -1.10432665
N       -0.75186802     0.95186896    -0.10363532
H       -0.01371217     0.54378643    -0.86463638
H       -0.36517646     1.62966249     0.68085379
