6

C       -0.03118719     0.06655542    -0.20209846
N       -0.03983898     0.01945656     1.51540167
H        0.93746940    -0.18451082    -0.69000632
H        0.68317190    -0.72676996     1.68678140
H       -0.94506280    -0.40017184     1.81466354
H       -0.96329126    -0.42177350    -0.56975454
