6

C       -0.06774280     0.02291806     0.02177957
N       -0.00662468    -0.05980867     1.29827070
H        0.15559353    -0.89155152    -0.53296932
H        0.03538006     0.78670100     1.86941661
H       -0.19326642    -0.97737225     1.71724040
H       -0.31137017     0.97047460    -0.46240961
