    14
  Step:   600            Position(A)                                  Velocity(au)
C        -6.11079396    -0.66037276     0.18980002    -0.00018140    -0.00039822    -0.00049484
C        -4.77717630    -0.74314001    -0.06200327    -0.00083531    -0.00022739     0.00055238
H        -6.70829875     0.19693363     0.38040480    -0.00152170    -0.00105928    -0.00007422
H        -6.63670747    -1.64451242     0.29791253     0.00259781     0.00127471    -0.00018787
H        -4.18550670    -1.68936091    -0.22239714     0.00314228    -0.00241915    -0.00011916
C        -3.80208260     0.45884333     0.08535938    -0.00012121     0.00079989    -0.00019577
C        -2.43080403     0.33563639    -0.10449046    -0.00045493    -0.00026806    -0.00011059
H        -3.99429847     1.44926718    -0.07947595    -0.00141412     0.00013080     0.00073587
H        -1.95765209    -0.60735071    -0.39993373     0.00006826    -0.00251661    -0.00080535
C        -1.62933869     1.57566359    -0.34608609     0.00016621     0.00013733     0.00075720
H        -1.88809154     2.23013307    -1.17758280     0.00033506    -0.00055968    -0.00139251
N        -0.73328730     1.91976141     0.50874910     0.00091564     0.00020333    -0.00040121
H        -0.53619687     2.94013627     0.51353376    -0.00161473     0.00027036     0.00273251
H        -0.44854879     1.56859952     1.46100437     0.00268288     0.00153419    -0.00137168
