12

C       -0.02862162     0.11425053    -0.02670690
N       -0.04532719    -0.10993994     1.35059843
H        0.82029991    -0.40929053    -0.62501890
H        0.85192057     0.07720896     1.85747753
H       -0.94843686     0.02727954     1.84849935
H       -0.96578439    -0.19864345    -0.63906986
C       -0.02843557     0.11566379    -0.02645590
N       -0.04539022    -0.11059533     1.34984444
H        0.81686427    -0.41594138    -0.62093649
H        0.85026126     0.08054281     1.85890464
H       -0.94537442     0.02691384     1.84837221
H       -0.96509300    -0.20269371    -0.63696547
