6

C       -0.03466647     0.01460146     0.02473783
N       -0.03263838    -0.04861330     1.28896237
H        0.18693555     0.95042137    -0.49139920
H       -0.29474213    -0.93351181     1.74621311
H       -0.10015652     0.75768246     1.92115530
H       -0.13832968    -0.94281878    -0.49058071
