14

C       -5.27593977    -1.00892225    -0.42817981
C       -4.17497841    -0.49803116     0.08725085
H       -6.21378070    -0.55628309    -0.28863851
H       -5.47928832    -1.95578937    -0.89378533
H       -3.26368662    -1.14528060     0.08589709
C       -4.16208688     0.93956848     0.52662473
C       -3.13309687     1.66509639     0.13217850
H       -5.03637790     1.01741223     1.26242461
H       -2.80574404     2.54552966     0.50030638
C       -2.00231952     0.99848293    -0.32334914
H       -2.10597388     0.56174065    -1.26385534
N       -0.76632263     1.10712674     0.31490538
H       -0.22817132     0.31988103    -0.02033310
H       -0.78510427     1.49074991     1.32102690
