    14
  Step:   600            Position(A)                                  Velocity(au)
C        -5.80015517    -0.87989508    -0.09834478    -0.00025342     0.00028026     0.00029604
C        -4.89120770    -0.02254445     0.41117057    -0.00019321     0.00047678     0.00022422
H        -5.93055118    -1.06719008    -1.14206634    -0.00095647    -0.00133618     0.00096404
H        -6.51716792    -1.34471662     0.48485819    -0.00012208    -0.00129176     0.00045234
H        -4.67049376     0.08075717     1.52407813     0.00028832     0.00218720    -0.00008027
C        -3.82208911     0.19946786    -0.43314466     0.00057709    -0.00072235    -0.00037499
C        -2.47305675     0.29298058    -0.02191025     0.00022145    -0.00052792    -0.00076400
H        -3.89229520     0.05867561    -1.50512345     0.00182575     0.00104130     0.00086910
H        -1.71275233    -0.24622835    -0.61316602    -0.00124086     0.00235323    -0.00190830
C        -1.86789899     1.42342703     0.53331987     0.00032256    -0.00032176    -0.00014294
H        -2.41915221     1.85895772     1.32129084    -0.00077845     0.00109391    -0.00181307
N        -0.70990404     1.94346648     0.03157154    -0.00031566     0.00065644     0.00067265
H        -0.21021633     2.72149328     0.52893382    -0.00013050    -0.00120744     0.00105502
H        -0.08516773     1.49570281    -0.68421668    -0.00253616    -0.00225082     0.00018976
