     6
  Step:   300            Position(A)                                  Velocity(au)
C        -0.05007747    -0.00458008     0.02796282     0.00004881    -0.00002248     0.00004761
N        -0.05196926    -0.04641804     1.28762521    -0.00015048     0.00004814    -0.00004227
H         0.10666091     0.98222808    -0.40323804    -0.00184827     0.00012189    -0.00044325
H         0.02883290    -0.88818614     1.85872511    -0.00094988     0.00030840     0.00054899
H         0.22402665     0.78366645     1.84578641     0.00264913    -0.00089886     0.00030754
H        -0.25355019    -0.84788423    -0.63573902     0.00165842     0.00006747    -0.00039319
