     6
  Step:   300            Position(A)                                  Velocity(au)
C        -0.03868817     0.01096292     0.02731412     0.00000159     0.00000051    -0.00013291
N        -0.04341322    -0.05154136     1.28833694    -0.00000286    -0.00001128     0.00014379
H         0.01288673     0.96541669    -0.48816101    -0.00114635    -0.00014035    -0.00022031
H        -0.30658853    -0.88396813     1.82885182    -0.00110973     0.00059215    -0.00003279
H         0.22851225     0.72165141     1.90521618     0.00114251    -0.00051745    -0.00000070
H        -0.08345414    -0.88729285    -0.58252574     0.00113437     0.00021625    -0.00016067
