     6
  Step:   300            Position(A)                                  Velocity(au)
C        -0.01999292     0.01013870     0.01743226    -0.00004939    -0.00008681     0.00004933
N        -0.05839113    -0.05542539     1.29860162     0.00017011     0.00002210    -0.00006185
H         0.26341460    -0.86217847    -0.56293985    -0.00014805     0.00007868    -0.00048722
H         0.01385066     0.81931665     1.82564930    -0.00116764     0.00010781    -0.00007349
H        -0.15664365    -0.94721646     1.79173244    -0.00068202     0.00025120     0.00018637
H        -0.28390165     0.96968679    -0.41594287     0.00022243     0.00028956     0.00064596
