14

C       -6.04440353    -0.85980323     0.10766948
C       -4.64075187    -0.68202443     0.03214362
H       -6.95780327    -0.57657611    -0.47800174
H       -6.28912742    -1.40543008     1.12113290
H       -4.25347925    -0.66048207     1.10021702
C       -3.96682639     0.53170268    -0.32078897
C       -2.54893546     0.51801270    -0.20609293
H       -4.69367996     1.40348677    -0.07424638
H       -2.15622787    -0.45962344    -0.27588998
C       -1.78158530     1.59912451     0.16873479
H       -2.43874596     2.47797911     0.28353670
N       -0.49466527     1.78773410     0.37849520
H       -0.23891273     2.73522684     0.72371657
H        0.12523226     1.09178535    -0.04505062
