6

C       -0.03868600     0.02043364     0.01824163
N       -0.04440349    -0.05839701     1.29790682
H        0.02552425    -0.88060564    -0.58486729
H       -0.07473471     0.75347794     1.92554410
H        0.02565911    -0.94530362     1.80070401
H       -0.11135345     0.97069351    -0.50288013
