     6
  Step:   300            Position(A)                                  Velocity(au)
C        -0.04201655     0.01054400     0.02522007    -0.00001551     0.00002111     0.00016477
N        -0.04114038    -0.05774188     1.29289581     0.00000281    -0.00001422    -0.00010696
H         0.88238359     0.05411440    -0.54300549    -0.00002433     0.00113414     0.00006453
H         0.81389778    -0.10645751     1.85006984    -0.00000971    -0.00126503    -0.00019460
H        -0.87872532     0.04028457     1.88137291     0.00010490     0.00137801    -0.00016724
H        -0.95810742     0.01905401    -0.56346202     0.00007491    -0.00130109    -0.00017974
