    14
  Step:   600            Position(A)                                  Velocity(au)
C        -5.71511752    -0.65267432     0.72004578     0.00018141     0.00011515     0.00053680
C        -4.71313270    -0.55934422    -0.19077218     0.00028582    -0.00020228    -0.00004760
H        -5.77558106     0.34150762     1.41374257     0.00161147     0.00113785     0.00059871
H        -6.64869917    -1.29513976     0.61045980    -0.00175743     0.00242920     0.00138152
H        -4.45629941    -1.23334720    -1.09251567     0.00113505     0.00024117    -0.00208245
C        -3.65905677     0.40638632    -0.11373395     0.00084871    -0.00027290    -0.00049037
C        -2.50082304     0.61321123    -0.91682792     0.00026649     0.00063601    -0.00019975
H        -3.76016159     1.00873000     0.83379649    -0.00009818     0.00317892    -0.00113244
H        -2.35571507    -0.09900363    -1.76964112    -0.00093955    -0.00115439     0.00103685
C        -1.30968462     1.24613112    -0.27901915    -0.00065225     0.00042178     0.00033336
H        -0.16024516     1.14706370    -0.81588130     0.00031211    -0.00438750    -0.00199821
N        -1.45890672     1.85870088     0.89789212    -0.00063625    -0.00054069     0.00020524
H        -0.83699205     2.20381385     1.67478473    -0.00266267    -0.00069397    -0.00015419
H        -2.43428331     2.18219153     0.98014987     0.00015658    -0.00155236    -0.00207986
