6

C       -0.00498075     0.01833464     0.02281460
N       -0.09618714    -0.05211492     1.29651192
H        0.11005762    -0.91663973    -0.53225503
H        0.02885643     0.74511776     1.93348405
H        0.13485061    -0.92566471     1.77368525
H       -0.09070845     0.93312908    -0.57151656
