6

C       -0.04301000    -0.02504188    -0.04956657
N       -0.03696878    -0.09084536     1.36195299
H        0.85490177    -0.18460693    -0.71162959
H        0.57516265     0.66028295     1.80636953
H       -0.86861299    -0.32914264     1.94591502
H       -0.74814597     0.74450851    -0.48415498
