     6
  Step:   300            Position(A)                                  Velocity(au)
C        -0.03293157     0.00590174     0.02047999    -0.00009675     0.00001547     0.00019250
N        -0.03813086    -0.05351532     1.29144937     0.00013335     0.00003448    -0.00019851
H         0.18014255    -0.89397630    -0.55445218    -0.00159040     0.00001999    -0.00010330
H        -0.23896904     0.80230697     1.82364721    -0.00270542    -0.00084630     0.00026327
H        -0.11062979    -0.91613503     1.84051558     0.00136422     0.00026067     0.00061551
H        -0.12118625     1.01135409    -0.40812744     0.00223148    -0.00009784    -0.00031067
