6

C       -0.24173357    -0.04550224    -0.10008480
N        0.17009180    -0.00103782     1.42305725
H       -0.77258033     1.36336894    -0.57131799
H        0.23699275    -1.33500619     1.92161391
H       -0.61135131     0.51611456     1.64004789
H        0.45101034    -0.65746751    -0.68071093
