6

C       -0.04111933     0.04264841     0.01537928
N       -0.03050561    -0.02641051     1.32175950
H        0.82317349     0.21410391    -0.69036718
H        0.63414285    -0.70880714     1.76961441
H       -0.90930332     0.15578086     1.87619224
H       -0.84704547    -0.47206008    -0.61428879
