     6
  Step:   120            Position(A)                                  Velocity(au)
C        -0.03737422    -0.03606314    -0.02325393    -0.00010003     0.00000619     0.00051703
N        -0.03929455    -0.10338836     1.34125325     0.00010285     0.00010949    -0.00046787
H         0.84886933    -0.05151422    -0.70943363    -0.00026060    -0.00145324     0.00042708
H         0.59856530     0.63556057     1.73821251    -0.00093888     0.00063409    -0.00008505
H        -0.91275955    -0.14475660     1.92602471     0.00013218    -0.00160381    -0.00039806
H        -0.75621367     0.75737731    -0.42418684     0.00082998     0.00082766     0.00039678
