     6
  Step:   120            Position(A)                                  Velocity(au)
C        -0.03004752     0.06703715    -0.14658104    -0.00004778    -0.00001600     0.00038976
N        -0.03653922     0.00698678     1.46319761     0.00002970    -0.00000675    -0.00034301
H         0.91373029    -0.01265742    -0.73458769     0.00005326     0.00128307    -0.00000500
H         0.58286130    -0.84102502     1.65379138    -0.00109702    -0.00112708    -0.00079736
H        -0.96379932    -0.13659110     1.91061233     0.00022218     0.00140915     0.00007140
H        -0.87992082    -0.57542511    -0.52421748     0.00097823    -0.00128074     0.00085321
