14

C   -6.03124608   -0.75674972   -0.13470602    0.00000044    0.00014863   -0.00018334
C   -4.66471798   -0.76043778    0.13848465    0.00016054    0.00008324    0.00000368
H   -6.42816304    0.21246862   -0.43537744   -0.00047842    0.00115498    0.00020216
H   -6.63392394   -1.66396498    0.07396399    0.00023509   -0.00043436    0.00097302
H   -4.10542531   -1.67678351    0.46839205   -0.00084618   -0.00060164    0.00019570
C   -3.88335880    0.43474226   -0.05061350   -0.00004674   -0.00026961    0.00012853
C   -2.56313639    0.51821085    0.20851787   -0.00006708   -0.00022500    0.00006999
H   -4.46349230    1.31060992   -0.43925252   -0.00032988    0.00004083    0.00006118
H   -2.00784277   -0.43217462    0.44259132    0.00031197    0.00061065   -0.00070824
C   -1.84864621    1.75824324    0.02722343    0.00022775    0.00010068   -0.00012219
H   -2.35267543    2.72654072   -0.22917591   -0.00048503   -0.00037935   -0.00048745
N   -0.55222201    1.76126366    0.16966165   -0.00025836    0.00013388    0.00012214
H    0.06055001    2.59524957    0.10716482    0.00067355   -0.00031842   -0.00020488
H   -0.06942617    0.86591943    0.41677106    0.00123339   -0.00000213   -0.00049750
