    14
  Step:   600            Position(A)                                  Velocity(au)
C        -5.87556742    -0.54196073     0.04882465    -0.00015530     0.00058283     0.00026968
C        -4.63544572    -0.59055096     0.41447858     0.00064893    -0.00075169    -0.00046176
H        -6.18836249    -0.21868850    -0.99207861    -0.00001524    -0.00384971    -0.00143278
H        -6.75267501    -0.86139319     0.70746654    -0.00131984     0.00316280    -0.00056460
H        -4.20450593    -1.06906995     1.26613586     0.00071480     0.00085511     0.00226587
C        -3.77437480     0.03543532    -0.55404707     0.00048119    -0.00060528     0.00028456
C        -2.71022229     0.86814178    -0.37790583    -0.00036976     0.00113799     0.00012287
H        -4.21762914     0.28416435    -1.49037448     0.00095121    -0.00032155    -0.00044608
H        -2.22524075     1.27149218    -1.31778994    -0.00235230     0.00189308    -0.00167613
C        -1.77908606     1.23348214     0.67842294    -0.00072635     0.00016723     0.00002678
H        -1.90190450     1.23572317     1.80543768     0.00086047     0.00123178    -0.00102333
N        -0.73555960     1.86411638     0.19308831     0.00022628    -0.00064489    -0.00004291
H         0.18888574     1.90998548     0.69844296    -0.00082782    -0.00258645    -0.00138014
H        -0.73001851     2.21364519    -0.84588441     0.00028946     0.00224805     0.00196839
