     6
  Step:   300            Position(A)                                  Velocity(au)
C        -0.03109246     0.01230453     0.03171694     0.00001638     0.00002168     0.00004516
N        -0.04690962    -0.05851272     1.28843731     0.00000620     0.00000187    -0.00001129
H         0.87881102    -0.11826338    -0.55740803    -0.00010100    -0.00125128     0.00014868
H         0.79129678     0.01535157     1.87102964     0.00000350     0.00120451    -0.00048415
H        -0.91562823    -0.09143811     1.83336823    -0.00021339    -0.00128807    -0.00030056
H        -0.94507829     0.19108599    -0.53748651     0.00002956     0.00105048     0.00025483
