12

C       -0.03630527     0.04821217    -0.06261002
N       -0.02993008    -0.00586315     1.38494800
H        0.84670236     0.26922186    -0.69924275
H        0.50792847    -0.86498354     1.66914802
H       -0.90704216     0.04627572     1.97805850
H       -0.81198872    -0.61331239    -0.55558719
C       -0.03680222     0.04824503    -0.05936554
N       -0.02948480    -0.00616852     1.38199481
H        0.84396863     0.27671904    -0.69635871
H        0.50080199    -0.87064409     1.66746041
H       -0.90427997     0.05579579     1.97622699
H       -0.80515669    -0.62081713    -0.55257496
