12

C       -0.03326875     0.07258011     0.00613828
N       -0.04672888    -0.10411053     1.33374729
H        0.84252266    -0.16586086    -0.68894163
H        0.84353907     0.03909093     1.83175180
H       -0.92443251     0.17611200     1.83653216
H       -0.92878906    -0.13721682    -0.69466509
C       -0.03315415     0.07428866     0.00408919
N       -0.04690554    -0.10483975     1.33537617
H        0.84736049    -0.17061239    -0.68715702
H        0.84557160     0.03871032     1.83069125
H       -0.92512809     0.17710641     1.83606120
H       -0.93387445    -0.14330478    -0.69313675
