14

C       -5.82636636    -0.76265067     0.17425513
C       -4.80270526     0.10972840     0.31678609
H       -5.76004964    -1.59566647    -0.49640816
H       -6.50768859    -0.80091771     1.01831932
H       -4.84348772     0.86104046     1.22849605
C       -3.65317097    -0.08767988    -0.47481835
C       -2.40611045     0.54305085    -0.58199672
H       -3.85831727    -0.85468297    -1.45583325
H       -1.79744137     0.26624258    -1.45641502
C       -2.00383402     1.36802497     0.47618052
H       -2.75209765     1.84114251     1.08366519
N       -0.81426291     1.83197245     0.39880555
H       -0.05126437     1.89487567     1.11137073
H       -0.35109164     1.62365698    -0.49376455
