     6
  Step:   120            Position(A)                                  Velocity(au)
C        -0.04005827     0.06213734    -0.04872832     0.00008262    -0.00005775     0.00059563
N        -0.04709986     0.00057784     1.37375980    -0.00005198    -0.00004348    -0.00053081
H         0.67436650    -0.70763414    -0.46548871    -0.00103078    -0.00098352     0.00032054
H         0.84056401    -0.08014572     1.93669637    -0.00040106     0.00179369    -0.00025065
H        -0.66688165    -0.80413933     1.63408415     0.00085151    -0.00098976    -0.00019164
H        -0.92912973     0.17368065    -0.72284617     0.00031818     0.00147202     0.00040053
