6

C       -0.01160764     0.01279761     0.01544302
N       -0.07983581    -0.05288152     1.30331803
H        0.32863961     0.94091294    -0.43927290
H        0.04738744    -0.97301348     1.73650570
H       -0.00738101     0.80806671     1.85015935
H       -0.33384118    -0.86338868    -0.55073922
