    14
  Step:   600            Position(A)                                  Velocity(au)
C        -5.85567311    -0.79619926    -0.28411340     0.00014795     0.00021526     0.00024646
C        -4.54073125    -0.58712787    -0.36820343     0.00033839    -0.00059167    -0.00012529
H        -6.51870969    -0.74721360     0.50425244     0.00292890     0.00002142     0.00178085
H        -6.23778827    -1.11058806    -1.28467566    -0.00171702     0.00379426     0.00059974
H        -4.07409713    -0.92151428    -1.32788465    -0.00068069     0.00208064    -0.00054209
C        -3.91129959     0.32595381     0.57947872    -0.00053320    -0.00002401    -0.00026341
C        -2.76230916     1.06635932     0.78528502     0.00043372     0.00026195    -0.00041181
H        -4.36795206     0.27172827     1.53533607     0.00136894     0.00038994    -0.00035466
H        -2.56508457     1.70634228     1.65320330    -0.00187950    -0.00129189     0.00208583
C        -1.84833859     1.11357996    -0.22549146    -0.00023385    -0.00064047    -0.00048069
H        -1.79970963     0.42511676    -1.00009995    -0.00194916    -0.00340963     0.00088016
N        -0.62838567     1.83349781    -0.07852761    -0.00018338     0.00043044     0.00045242
H         0.32723251     1.59018059    -0.51311607     0.00042341     0.00074412     0.00395525
H        -0.57306600     2.57150537     0.73497523     0.00223009     0.00097147    -0.00236217
