     6
  Step:   120            Position(A)                                  Velocity(au)
C        -0.03765195    -0.02387085    -0.20573665    -0.00001255    -0.00003134     0.00014002
N        -0.05357532    -0.14300826     1.50555286    -0.00005733    -0.00000158    -0.00012096
H         0.87430400     0.54089192    -0.52312297    -0.00019972     0.00133644     0.00081244
H         0.85242490     0.17166043     1.89248709     0.00041869    -0.00094767     0.00015061
H        -0.73501488     0.65297912     1.72279332     0.00098256     0.00106127    -0.00085149
H        -1.01149176     0.23643673    -0.67022992    -0.00025528    -0.00105462    -0.00009910
