6

C       -0.03759721    -0.01219738    -0.09898487
N       -0.03513809    -0.12179409     1.40670420
H        0.87570456    -0.14463559    -0.72770558
H        0.55818101     0.68600437     1.76715909
H       -0.93776013    -0.12544982     1.94785680
H       -0.77275847     0.75214176    -0.46382734
