     6
  Step:   300            Position(A)                                  Velocity(au)
C        -0.04216031     0.00632497     0.02589758     0.00001797    -0.00003683     0.00014729
N        -0.04895379    -0.05158798     1.28869535    -0.00009469     0.00005105    -0.00014533
H         0.13111628     0.98562706    -0.42265291    -0.00203633     0.00004833    -0.00035511
H        -0.08759294    -0.92062136     1.83166555    -0.00153735     0.00042290     0.00069564
H         0.16127728     0.77468051     1.86941432     0.00265972    -0.00088314     0.00044454
H        -0.23506267    -0.86794122    -0.60313532     0.00201564     0.00014138    -0.00052067
