6

C       -0.04267190     0.01256584     0.02265175
N       -0.04048432    -0.05928563     1.29429382
H        0.88349734     0.03444716    -0.54244184
H        0.81499585    -0.08616766     1.85132911
H       -0.87930588     0.00512631     1.88566086
H       -0.96106700     0.05091730    -0.55840215
