6

C       -0.20725499    -0.09367469    -0.12139929
N        0.13535056     0.09918499     1.37610429
H       -0.54615541     0.94657226    -0.75245842
H        0.16186416    -0.84305869     1.84100317
H       -0.25281352    -0.01034680     2.44693247
H        0.01294166    -1.02485391    -0.31996506
