     6
  Step:   120            Position(A)                                  Velocity(au)
C        -0.03504323     0.05523124     0.00379037     0.00000332     0.00024917    -0.00037088
N        -0.04374497    -0.09731191     1.33831799    -0.00002786    -0.00011393     0.00031544
H         0.86189644    -0.08330224    -0.70388488     0.00101692    -0.00075151     0.00012689
H         0.84119301     0.07291780     1.83763501     0.00040740     0.00007138    -0.00012364
H        -0.94759952     0.11207420     1.82533997    -0.00013462     0.00009299    -0.00009419
H        -0.94295108    -0.07732223    -0.70993704    -0.00094211    -0.00079876     0.00012694
