6

C       -0.06205656     0.00009533     0.02550698
N       -0.02318225    -0.04864173     1.29098563
H        0.19890680     0.97884792    -0.38909346
H       -0.02703712    -0.93782319     1.79612049
H        0.02286860     0.83224685     1.82702158
H       -0.34605779    -0.86826419    -0.58591123
