14

C       -5.66332519    -0.79645805     0.64664883
C       -5.08759997     0.11390733    -0.03515032
H       -5.24614412    -1.76206872     0.90042706
H       -6.48979140    -0.48236419     1.25711134
H       -5.50085060     1.08356358    -0.25135345
C       -3.79522489     0.27361850    -0.89131089
C       -2.40911295     0.42470496    -0.61762445
H       -3.90512732     0.54492089    -1.96715549
H       -1.99162782     0.84785015    -1.56423565
C       -1.64062765     0.83135575     0.57920644
H       -1.76209574    -0.04543724     1.27953264
N       -0.89367707     1.96848600     0.58780616
H       -0.25220430     2.44832594     1.29609428
H       -0.81725445     2.55709030    -0.31275746
