     6
  Step:   600            Position(A)                                  Velocity(au)
C         0.02775015    -0.07673133     0.11565415     0.00047318     0.00034040     0.00050636
N        -0.08794419     0.00316254     1.20561366    -0.00005841    -0.00060876    -0.00093122
H        -0.98628050    -0.11119974    -0.25000222    -0.00456993     0.00123570     0.00417734
H        -1.25267021     0.29602370     1.62127508    -0.00394838     0.00163198     0.00096344
H         0.91176603    -0.16832850     1.65736847     0.00235438     0.00425778    -0.00215655
H         1.00571069     0.18465421    -0.26843232     0.00133715    -0.00272211     0.00392257
