     6
  Step:   300            Position(A)                                  Velocity(au)
C        -0.04034707     0.01055171     0.01164403     0.00001157    -0.00001684     0.00007258
N        -0.04234508    -0.05220090     1.30231513    -0.00003031     0.00001229    -0.00004931
H         0.09110053     0.97238717    -0.47587606     0.00067404    -0.00031638    -0.00021426
H        -0.24720118    -0.90660563     1.82557162     0.00094228    -0.00008599     0.00020842
H         0.18723115     0.75145850     1.89336818    -0.00065968     0.00001894     0.00012518
H        -0.17482303    -0.88737293    -0.58721286    -0.00067333     0.00041329    -0.00029893
