6

C   -0.04366372    0.00644927    0.03626544    0.00012273    0.00004010    0.00022798
N   -0.03652525   -0.05338701    1.27822907   -0.00003183    0.00007099   -0.00025053
H    0.92876115    0.02775816   -0.48697800    0.00009278   -0.00052163   -0.00019126
H    0.78780473   -0.11235173    1.82327202   -0.00028811   -0.00021890    0.00027875
H   -0.94866494   -0.03208211    1.91312497    0.00001427   -0.00056380    0.00068939
H   -0.95297162    0.11193263   -0.55223919   -0.00083911   -0.00016003   -0.00001199
