6

C        0.22097043     0.38133469    -0.03961375
N       -0.32104139    -0.47453770     1.38894846
H        0.82160577    -0.56433132    -0.52260963
H        0.75952188     1.24144764     0.36271077
H       -0.45549682    -0.42022609     2.44379056
H       -0.51025709     1.12386538    -0.22137390
