6

C       -0.02406268     0.02410297     0.02743038
N       -0.03810565    -0.05414843     1.28927992
H        0.23186361     0.92663575    -0.53346814
H       -0.26154529    -0.95377431     1.74404765
H       -0.13980985     0.73359611     1.92964808
H       -0.22717822    -0.91098402    -0.49132941
