6

C       -0.02250384     0.08777271     0.00192328
N       -0.05047552    -0.04156145     1.33294318
H        0.72897021    -0.57019806    -0.59177807
H        0.86912747    -0.05923987     1.83612906
H       -0.89772346    -0.44103257     1.78345693
H       -0.94372786    -0.06765948    -0.68173175
