6

C       -0.03077808     0.03085911    -0.02361553
N       -0.04213337    -0.05095959     1.33739201
H        0.94213401    -0.05385135    -0.57273280
H        0.80074596    -0.18556782     1.85024912
H       -0.94732703    -0.07737908     1.93274917
H       -1.05623932    -0.01254691    -0.62168032
