    14
  Step:   600            Position(A)                                  Velocity(au)
C        -5.21129044     0.70538205     1.12029032     0.00042710     0.00089437    -0.00037174
C        -4.81910209     0.01168086    -0.01658362    -0.00012449    -0.00058670     0.00013534
H        -4.40497763     1.21753390     1.65170955    -0.00271028     0.00198591     0.00072266
H        -6.15573908     0.60614821     1.79486393    -0.00242051    -0.00102490    -0.00117092
H        -5.53734241    -0.78435594    -0.65651744     0.00015917    -0.00092166    -0.00056645
C        -3.67075956     0.09952099    -0.95652618     0.00032751    -0.00060867     0.00070809
C        -2.34982303     0.38858744    -1.14606248    -0.00034342     0.00054643    -0.00056680
H        -4.02947075     0.00454461    -2.05322073    -0.00055445     0.00036446    -0.00211268
H        -1.92959981     0.65720289    -2.22127406     0.00021876     0.00089731    -0.00047424
C        -1.63440454     1.12650855    -0.07203416    -0.00060541     0.00002256     0.00061439
H        -1.20999996     2.05560766    -0.30746478     0.00007566     0.00086228     0.00039522
N        -1.65390571     0.72001105     1.16409617     0.00056214    -0.00023807    -0.00019852
H        -0.92530206     1.14679942     1.70121116     0.00033051    -0.00134986     0.00060660
H        -2.05688039    -0.05340528     1.68853101     0.00088729    -0.00069871    -0.00082926
