     6
  Step:   300            Position(A)                                  Velocity(au)
C        -0.06308605     0.01915117     0.01350002     0.00004411    -0.00009739     0.00006930
N        -0.00629480    -0.05932431     1.30511596    -0.00018859     0.00000912    -0.00010413
H         0.25566673     0.95147517    -0.45668962    -0.00017796     0.00052268     0.00092279
H        -0.07965599    -0.97786351     1.75321126     0.00075060     0.00021375     0.00016002
H        -0.14714759     0.80523367     1.83677562     0.00132780     0.00033235    -0.00018211
H        -0.40258135    -0.85242382    -0.53848552     0.00019469    -0.00003490    -0.00027945
