6

C   -0.03649035    0.02840519    0.04103326   -0.00009548    0.00004648    0.00006052
N   -0.04763446   -0.06024429    1.27011649    0.00016755   -0.00007677   -0.00008580
H    0.91732354   -0.09303849   -0.54902896    0.00093841   -0.00011601   -0.00036803
H    0.82389253   -0.08790363    1.94579224   -0.00086324    0.00027423   -0.00011793
H   -0.87172633   -0.03758205    1.83241121   -0.00110802    0.00043539    0.00095023
H   -0.98566093    0.04744394   -0.47607286   -0.00015783   -0.00008064    0.00000695
