     6
  Step:   600            Position(A)                                  Velocity(au)
C        -0.03431449     0.27106997     0.07687607    -0.00061206    -0.00056499     0.00080603
N        -0.14753034    -0.26587073     1.26821152     0.00101644     0.00020631    -0.00040988
H         0.05020074     1.30328662    -0.04653319     0.00116922     0.00526210    -0.00294893
H        -0.05040943    -1.44661587     1.18651338    -0.00137430    -0.00073995    -0.00587361
H         0.38820112    -0.15853102     2.15981069    -0.00584045     0.00194442     0.00229303
H         0.85831751     0.09660063    -0.94707731    -0.00078587    -0.00260107     0.00262064
