     6
  Step:   600            Position(A)                                  Velocity(au)
C        -0.18007146     0.01451944    -0.00822843     0.00031646    -0.00002202     0.00013723
N         0.23293171    -0.02553935     1.43547979    -0.00002097    -0.00008245     0.00019452
H        -1.18609828     0.42518452    -0.52759813    -0.00184107     0.00090023    -0.00276266
H        -0.56958071    -0.76342431     0.98565870     0.00382166    -0.00402062    -0.00433543
H        -0.74069502     0.27595287     1.63772712    -0.00258111     0.00535537     0.00377765
H         0.19277065    -0.42587607    -1.05312026    -0.00287894    -0.00082688    -0.00101782
