12

C       -0.04326291    -0.02641940    -0.11724435
N       -0.04488214    -0.13643575     1.41753840
H        0.94625267     0.36270452    -0.45611631
H        0.80438677     0.33483790     1.79377738
H       -0.85227025     0.44055270     1.73388964
H       -0.97208675     0.40290626    -0.48104767
C       -0.04399196    -0.02658868    -0.11524439
N       -0.04432170    -0.13690132     1.41591159
H        0.94750251     0.36699191    -0.45018250
H        0.80374484     0.33385377     1.79241168
H       -0.85258178     0.44812329     1.72867556
H       -0.97148368     0.40051939    -0.48162662
