     6
  Step:   120            Position(A)                                  Velocity(au)
C        -0.03326605     0.07195088    -0.03123692     0.00000915     0.00024384    -0.00003462
N        -0.04210760    -0.11087859     1.35948566     0.00003476    -0.00004840    -0.00008127
H         0.87798550    -0.25305081    -0.67807619    -0.00016756    -0.00149149     0.00059826
H         0.83631342     0.12165234     1.84851440    -0.00047106     0.00033661     0.00038315
H        -0.95470939     0.10306183     1.86936384     0.00019631    -0.00051811     0.00031813
H        -0.99096764     0.04197570    -0.66743248    -0.00014974    -0.00056007     0.00024241
