6

C       -0.03383240     0.01038986    -0.12499121
N       -0.05432552    -0.08913748     1.42899048
H        0.81291413     0.55403593    -0.60838561
H        0.80798668    -0.37370244     1.96545165
H       -0.73476865     0.54722230     1.88566239
H       -0.94099682    -0.28245153    -0.71905355
