     6
  Step:   120            Position(A)                                  Velocity(au)
C        -0.03890602     0.11331584    -0.03113342    -0.00002728     0.00021765    -0.00009422
N        -0.04174161    -0.06804334     1.35159675    -0.00003955    -0.00018239    -0.00004587
H         0.84807353    -0.35258679    -0.61752883     0.00011019    -0.00028883     0.00060021
H         0.84626107    -0.25584322     1.86110131    -0.00010736     0.00022177     0.00037768
H        -0.96297842    -0.05001149     1.84151490     0.00069924     0.00092820     0.00018437
H        -0.90065341    -0.41605067    -0.60434007     0.00017252    -0.00092005     0.00059788
