14

C   -6.09687950   -0.65543213   -0.20006154   -0.00016329   -0.00016860   -0.00022100
C   -4.74410280   -0.73555218    0.15405405    0.00047997    0.00024612    0.00015770
H   -6.50658253    0.22025200   -0.61903779   -0.00174519   -0.00006355   -0.00027278
H   -6.69221710   -1.60777657   -0.11745514    0.00049682   -0.00188190    0.00131589
H   -4.39888343   -1.75069267    0.50316559   -0.00059980    0.00030856   -0.00065509
C   -3.83573902    0.34186140    0.02741068   -0.00022243    0.00014852    0.00012845
C   -2.47988983    0.37792419    0.30571882   -0.00031468   -0.00000434   -0.00016270
H   -4.41951368    1.24821600   -0.36594461    0.00092396   -0.00096477    0.00071649
H   -1.90404554   -0.53546364    0.54561602    0.00036584    0.00005065   -0.00042543
C   -1.79766588    1.62462122   -0.02649720    0.00014944    0.00047860    0.00006000
H   -2.53358623    2.41547790   -0.27452638    0.00105350   -0.00068062   -0.00050626
N   -0.55773481    1.94479684    0.14395453   -0.00004116   -0.00033693   -0.00010018
H   -0.18289439    2.85717331   -0.12809589    0.00001846    0.00051968    0.00057033
H    0.27508133    1.40707562    0.36398968    0.00090437   -0.00095071    0.00109638
