6

C       -0.02667463    -0.03030180    -0.03023142
N       -0.05154808    -0.06622243     1.34990884
H        0.80027737     0.57453719    -0.57141768
H        0.81535450    -0.33409191     1.85577441
H       -0.83083741     0.42239094     1.88199341
H       -0.96354733    -0.05128926    -0.67288987
