     6
  Step:   120            Position(A)                                  Velocity(au)
C        -0.04277740     0.04121668    -0.03035940    -0.00006747    -0.00007692     0.00062774
N        -0.04287882    -0.04822049     1.34853372     0.00005692     0.00002919    -0.00054727
H         0.84259853     0.33180177    -0.66295604    -0.00051753     0.00142714     0.00052191
H         0.59049721    -0.74238250     1.83343150    -0.00137495    -0.00104502    -0.00054929
H        -0.72528260     0.45845645     1.96228365     0.00086890     0.00128412    -0.00022727
H        -0.81513054    -0.53872643    -0.61866327     0.00103665    -0.00115532     0.00037962
