     6
  Step:   600            Position(A)                                  Velocity(au)
C         0.16541123     0.20818764     0.02312365     0.00035811     0.00012922     0.00009606
N        -0.19538319    -0.34800247     1.33987442    -0.00059006     0.00007814    -0.00077198
H        -1.21675663     0.59793248     0.38984680     0.00119086    -0.00293930     0.00356871
H         0.03047432     0.43655772     2.27042198     0.00320774     0.00024956     0.00457258
H         0.66093808     1.38430669    -0.01727046    -0.00036741     0.00295569    -0.00203884
H         0.05635783    -0.73310299    -0.64611328    -0.00009886    -0.00289161     0.00348070
