14

C       -5.36744874    -1.16077621    -0.42445281
C       -5.01245415     0.01533691    -0.01315717
H       -4.93310549    -2.17681305    -0.36138167
H       -6.30048283    -1.29629469    -0.96675356
H       -5.57519523     0.92780157    -0.24721658
C       -3.62162102     0.08107351     0.30346905
C       -2.85966539     1.22827189     0.86400996
H       -3.19934110    -1.09186799     0.44170513
H       -3.13089786     2.05936710     1.45276475
C       -1.65328992     0.94819909     0.22398491
H       -1.37359536    -0.08658299     0.28347585
N       -0.95667089     1.90863534    -0.38593013
H       -0.25571156     1.68233123    -1.09751516
H       -1.29160367     2.84785585    -0.49547524
