     6
  Step:   120            Position(A)                                  Velocity(au)
C        -0.03621851    -0.02496703    -0.20502271    -0.00002028    -0.00002110     0.00012013
N        -0.04610889    -0.14270654     1.50195122     0.00009380     0.00002251    -0.00008768
H         0.95020934     0.19105794    -0.67507588     0.00020147    -0.00096018    -0.00013029
H         0.71785773     0.54212592     1.74129473    -0.00119562     0.00070448    -0.00125204
H        -0.91799008     0.26534350     1.90733127    -0.00078147    -0.00091779     0.00020689
H        -0.89069327     0.61230953    -0.51008315     0.00071383     0.00111204     0.00096234
