6

C       -0.03219810     0.06141744    -0.18011434
N       -0.03662735     0.01016361     1.49205666
H        0.92895390    -0.03095528    -0.71214125
H        0.64823932    -0.78063314     1.71387193
H       -0.95506915    -0.26471699     1.88360385
H       -0.94241561    -0.46657210    -0.58118027
