6

C        0.16329161     0.04545536     0.07736683
N       -0.25006337    -0.04228267     1.26424902
H        0.38696342    -0.97933466    -0.22120100
H       -0.89037728     0.81942731     1.94772187
H        0.64193523    -0.84991391     1.48538433
H        0.17806484     0.38584115    -0.80967921
