6

C        0.13349821     0.06374257     0.08732368
N       -0.10758008    -0.20444997     1.31916390
H       -1.04994656     0.19434226    -0.83420805
H       -0.06202910     0.78748143     1.28095125
H       -1.10107037     0.16781843     1.56400914
H        0.90447260     0.26192109    -0.49118332
