     6
  Step:   120            Position(A)                                  Velocity(au)
C        -0.05747733     0.08352682    -0.01887391    -0.00012530     0.00002232    -0.00007772
N        -0.03375755    -0.04889441     1.34076317    -0.00001457    -0.00007391    -0.00004224
H         0.90622052     0.04254685    -0.64694325     0.00030053     0.00127530     0.00054537
H         0.68628412    -0.66599665     1.81108537    -0.00066028    -0.00091120     0.00024139
H        -0.86678181     0.25963768     1.88885979     0.00119949     0.00147557     0.00020417
H        -0.78465229    -0.62181900    -0.56777182     0.00085578    -0.00107853     0.00052215
