6

C       -0.07333019     0.11521265    -0.01436745
N       -0.03730559    -0.07618823     1.26492883
H       -0.73932018    -0.66759066    -0.38491020
H        0.57993871     0.02390922     2.06813690
H        0.11722686    -1.25285368     2.41191829
H        0.22169813     0.91244566    -0.60946280
