     6
  Step:   120            Position(A)                                  Velocity(au)
C        -0.04692316     0.08082094    -0.03073192    -0.00008355     0.00018130    -0.00000774
N        -0.04102249    -0.05900062     1.35556332    -0.00000472    -0.00010175    -0.00011302
H         0.91877306    -0.06236307    -0.65403923     0.00018337     0.00040431     0.00057554
H         0.82054697    -0.42896652     1.83772317    -0.00044294    -0.00082545     0.00018076
H        -0.92432308     0.08949094     1.87104112     0.00070005     0.00131538     0.00027474
H        -0.89872063    -0.41111582    -0.63386457     0.00062073    -0.00164064     0.00063180
