14

C       -5.51804585    -0.12515039    -0.65374217
C       -4.73712380    -0.71612765     0.27374814
H       -5.44784619     0.93448106    -1.03836020
H       -6.43316987    -0.73820372    -1.02407928
H       -4.59819685    -1.84379215     0.38272713
C       -3.48035536     0.00707714     0.21723820
C       -2.36758550     0.34196023     1.03921844
H       -3.36589350     0.44269481    -0.77804781
H       -2.38623530     0.01193233     2.10837709
C       -1.45016228     1.20150393     0.34131755
H       -0.45113868     1.24355205     0.72530589
N       -1.76078097     2.13057586    -0.56380024
H       -0.92609229     2.17152363    -1.20087927
H       -2.72985055     2.36023914    -0.83827051
