     6
  Step:   120            Position(A)                                  Velocity(au)
C        -0.03607597    -0.02080842    -0.20651277     0.00004151    -0.00000140     0.00003585
N        -0.04357408    -0.14409248     1.50487391     0.00006346     0.00001615    -0.00002507
H         0.95226782     0.21674634    -0.62147741     0.00039993    -0.00099444    -0.00004905
H         0.73273901     0.48337620     1.74968140    -0.00079208     0.00055632    -0.00125390
H        -0.92536928     0.33691205     1.82197153    -0.00094459    -0.00076133     0.00024137
H        -0.93715911     0.54352041    -0.50958401    -0.00003979     0.00099177     0.00098285
