     6
  Step:   120            Position(A)                                  Velocity(au)
C        -0.06080983    -0.07928670    -0.03277462    -0.00007920    -0.00009540    -0.00002187
N        -0.04271668    -0.01934115     1.34667939    -0.00004164     0.00007666    -0.00012101
H         0.91205192     0.10718348    -0.62794877    -0.00006350    -0.00067010     0.00056296
H         0.83793367     0.11057541     1.86915547    -0.00023499     0.00083879     0.00030541
H        -0.89749406    -0.38875606     1.84605185     0.00089489    -0.00119250     0.00020275
H        -0.74722482     0.71477537    -0.51862874     0.00092592     0.00109527     0.00087110
