     6
  Step:   120            Position(A)                                  Velocity(au)
C        -0.03418859     0.06333329    -0.23171959    -0.00004363     0.00014195     0.00003635
N        -0.03747814     0.00259521     1.53452975    -0.00001897     0.00021110     0.00009429
H         0.93133654    -0.19576132    -0.70443678     0.00060004    -0.00069791    -0.00007307
H         0.73714919    -0.62497737     1.83249801    -0.00055487    -0.00182784    -0.00107667
H        -0.95111842    -0.39646761     1.87641999     0.00072029    -0.00064514    -0.00105335
H        -1.00208697    -0.24331479    -0.67562785     0.00001818    -0.00145422     0.00045960
