     6
  Step:     0            Position(A)                                  Velocity(au)
C        -0.03790572     0.02270564    -0.00403240     0.00008353     0.00007040    -0.00009548
N        -0.05527384    -0.04508591     1.31315561     0.00012479    -0.00005441     0.00004848
H         0.95488660    -0.05286951    -0.49944622    -0.00004223    -0.00002034    -0.00003677
H         0.88371046    -0.18491590     1.83999634    -0.00030090     0.00001715     0.00007987
H        -0.86180987    -0.10729988     1.87758201    -0.00136312     0.00031021     0.00080053
H        -0.96993284     0.03127464    -0.52611306    -0.00102325    -0.00038981    -0.00037948
     6
  Step:     1            Position(A)                                  Velocity(au)
C        -0.03741776     0.02309283    -0.00458219     0.00009387     0.00007123    -0.00010575
N        -0.05451818    -0.04538430     1.31347092     0.00014967    -0.00005483     0.00006754
H         0.95464331    -0.05298093    -0.49983267    -0.00004642    -0.00002036    -0.00010507
H         0.88159683    -0.18477362     1.84023814    -0.00046882     0.00003426     0.00001053
H        -0.86980496    -0.10566917     1.88238093    -0.00153757     0.00028849     0.00093782
H        -0.97589653     0.02914572    -0.52859709    -0.00114555    -0.00038929    -0.00052168
     6
  Step:     2            Position(A)                                  Velocity(au)
C        -0.03687897     0.02348479    -0.00518910     0.00010201     0.00007212    -0.00011634
N        -0.05363675    -0.04568563     1.31389441     0.00017055    -0.00005545     0.00008796
H         0.95437886    -0.05309221    -0.50059550    -0.00005006    -0.00002028    -0.00017427
H         0.87858235    -0.18454113     1.84011156    -0.00062857     0.00004989    -0.00005384
H        -0.87862826    -0.10414424     1.88784019    -0.00166447     0.00027143     0.00104093
H        -0.98246320     0.02701642    -0.53181936    -0.00124250    -0.00038982    -0.00064868
     6
  Step:     3            Position(A)                                  Velocity(au)
C        -0.03630187     0.02388177    -0.00585487     0.00010778     0.00007302    -0.00012717
N        -0.05265252    -0.04599091     1.31443312     0.00018704    -0.00005621     0.00010949
H         0.95409570    -0.05320276    -0.50173901    -0.00005335    -0.00002008    -0.00024403
H         0.87472081    -0.18422790     1.83964914    -0.00077648     0.00006350    -0.00011121
H        -0.88801268    -0.10269998     1.89376769    -0.00174170     0.00025873     0.00110836
H        -0.98948830     0.02488141    -0.53569308    -0.00131196    -0.00039111    -0.00075913
     6
  Step:     4            Position(A)                                  Velocity(au)
C        -0.03569966     0.02428377    -0.00658057     0.00011110     0.00007389    -0.00013808
N        -0.05159023    -0.04630070     1.31509239     0.00019887    -0.00005702     0.00013175
H         0.95379514    -0.05331193    -0.50326558    -0.00005650    -0.00001975    -0.00031391
H         0.87008623    -0.18384631     1.83889469    -0.00090877     0.00007457    -0.00015947
H        -0.89768560    -0.10131330     1.89996762    -0.00176932     0.00024998     0.00114020
H        -0.99681840     0.02273698    -0.54012561    -0.00135281    -0.00039288    -0.00085218
     6
  Step:     5            Position(A)                                  Velocity(au)
C        -0.03508579     0.02469055    -0.00736633     0.00011196     0.00007468    -0.00014890
N        -0.05047570    -0.04661507     1.31587527     0.00020592    -0.00005779     0.00015428
H         0.95347722    -0.05341896    -0.50517515    -0.00005977    -0.00001927    -0.00038346
H         0.86477330    -0.18341161     1.83790353    -0.00102170     0.00008258    -0.00019654
H        -0.90737979    -0.09996363     1.90624838    -0.00174928     0.00024472     0.00113789
H        -1.00429631     0.02058096    -0.54502106    -0.00136493    -0.00039487    -0.00092749
     6
  Step:     6            Position(A)                                  Velocity(au)
C        -0.03447348     0.02510164    -0.00821123     0.00011047     0.00007537    -0.00015941
N        -0.04933512    -0.04693358     1.31678203     0.00020819    -0.00005843     0.00017657
H         0.95314056    -0.05352296    -0.50746502    -0.00006343    -0.00001862    -0.00045215
H         0.85889698    -0.18294194     1.83674222    -0.00111176     0.00008702    -0.00022046
H        -0.91684290    -0.09863322     1.91242927    -0.00168509     0.00024243     0.00110398
H        -1.01176651     0.01841254    -0.55028310    -0.00134917    -0.00039689    -0.00098529
     6
  Step:     7            Position(A)                                  Velocity(au)
C        -0.03387530     0.02551638    -0.00911314     0.00010678     0.00007592    -0.00016943
N        -0.04819444    -0.04725536     1.31781001     0.00020579    -0.00005888     0.00019807
H         0.95278220    -0.05362293    -0.51012970    -0.00006776    -0.00001776    -0.00051952
H         0.85259096    -0.18245804     1.83548782    -0.00117582     0.00008746    -0.00022944
H        -0.92584444    -0.09730714     1.91834545    -0.00158139     0.00024262     0.00104182
H        -1.01908005     0.01623201    -0.55581758    -0.00130714    -0.00039877    -0.00102622
     6
  Step:     8            Position(A)                                  Velocity(au)
C        -0.03330281     0.02593400    -0.01006884     0.00010109     0.00007632    -0.00017875
N        -0.04707885    -0.04757912     1.31895361     0.00019892    -0.00005906     0.00021828
H         0.95239760    -0.05371773    -0.51316098    -0.00007308    -0.00001669    -0.00058510
H         0.84600541    -0.18198302     1.83422663    -0.00121129     0.00008352    -0.00022203
H        -0.93418111    -0.09597319     1.92385166    -0.00144349     0.00024481     0.00095521
H        -1.02609792     0.01404051    -0.56153451    -0.00124106    -0.00040040    -0.00105129
     6
  Step:     9            Position(A)                                  Velocity(au)
C        -0.03276632     0.02635361    -0.01107404     0.00009368     0.00007657    -0.00018722
N        -0.04601233    -0.04790322     1.32020455     0.00018784    -0.00005892     0.00023678
H         0.95198056    -0.05380607    -0.51654819    -0.00007967    -0.00001538    -0.00064852
H         0.83930330    -0.18154184     1.83305221    -0.00121639     0.00007493    -0.00019717
H        -0.94167929    -0.09462161     1.92882390    -0.00127702     0.00024860     0.00084816
H        -1.03269427     0.01183969    -0.56735006    -0.00115357    -0.00040174    -0.00106181
     6
  Step:    10            Position(A)                                  Velocity(au)
C        -0.03227471     0.02677433    -0.01212357     0.00008479     0.00007666    -0.00019469
N        -0.04501726    -0.04822578     1.32155224     0.00017290    -0.00005844     0.00025319
H         0.95152324    -0.05388655    -0.52027847    -0.00008783    -0.00001380    -0.00070944
H         0.83265554    -0.18116062     1.83206270    -0.00119023     0.00006156    -0.00015434
H        -0.94819632    -0.09324484     1.93316021    -0.00108757     0.00025362     0.00072467
H        -1.03875828     0.00963147    -0.57318784    -0.00104748    -0.00040275    -0.00105924
     6
  Step:    11            Position(A)                                  Velocity(au)
C        -0.03183537     0.02719522    -0.01321155     0.00007471     0.00007659    -0.00020106
N        -0.04411404    -0.04854479     1.32298430     0.00015447    -0.00005758     0.00026724
H         0.95101629    -0.05395762    -0.52433724    -0.00009783    -0.00001193    -0.00076763
H         0.82623566    -0.18086598     1.83135774    -0.00113292     0.00004339    -0.00009358
H        -0.95361983    -0.09183712     1.93678018    -0.00088050     0.00025958     0.00058854
H        -1.04419463     0.00741780    -0.57897952    -0.00092565    -0.00040348    -0.00104512
     6
  Step:    12            Position(A)                                  Velocity(au)
C        -0.03145420     0.02761540    -0.01433162     0.00006371     0.00007637    -0.00020625
N        -0.04332085    -0.04885814     1.32448712     0.00013299    -0.00005636     0.00027878
H         0.95044891    -0.05401760    -0.52870856    -0.00010990    -0.00000975    -0.00082288
H         0.82021374    -0.18068412     1.83103497    -0.00104575     0.00002058    -0.00001564
H        -0.95786602    -0.09039418     1.93962362    -0.00066075     0.00026624     0.00044326
H        -1.04892382     0.00520046    -0.58466531    -0.00079091    -0.00040393    -0.00102101
     6
  Step:    13            Position(A)                                  Velocity(au)
C        -0.03113561     0.02803404    -0.01547698     0.00005203     0.00007601    -0.00021022
N        -0.04265329    -0.04916381     1.32604638     0.00010895    -0.00005478     0.00028774
H         0.94980914    -0.05406466    -0.53337553    -0.00012428    -0.00000722    -0.00087507
H         0.81474949    -0.18063994     1.83118596    -0.00093111    -0.00000654     0.00007807
H        -0.96087724    -0.08891281     1.94164881    -0.00043286     0.00027342     0.00029204
H        -1.05288169     0.00298112    -0.59019395    -0.00064585    -0.00040418    -0.00098840
     6
  Step:    14            Position(A)                                  Velocity(au)
C        -0.03088269     0.02845034    -0.01664072     0.00003990     0.00007552    -0.00021294
N        -0.04212408    -0.04945986     1.32764764     0.00008290    -0.00005288     0.00029411
H         0.94908385    -0.05409687    -0.53832041    -0.00014113    -0.00000432    -0.00092404
H         0.80998631    -0.18075598     1.83189244    -0.00079249    -0.00003747     0.00018541
H        -0.96262059    -0.08739088     1.94283140    -0.00020106     0.00028094     0.00013783
H        -1.05601788     0.00076096    -0.59552203    -0.00049284    -0.00040427    -0.00094865
     6
  Step:    15            Position(A)                                  Velocity(au)
C        -0.03069734     0.02886355    -0.01781586     0.00002753     0.00007491    -0.00021441
N        -0.04174275    -0.04974460     1.32927670     0.00005542    -0.00005069     0.00029797
H         0.94825907    -0.05411212    -0.54352476    -0.00016058    -0.00000103    -0.00096966
H         0.80604510    -0.18105151     1.83322240    -0.00063443    -0.00007154     0.00030359
H        -0.96308559    -0.08582707     1.94316266     0.00003076     0.00028866    -0.00001666
H        -1.05829477    -0.00145919    -0.60061343    -0.00033404    -0.00040427    -0.00090297
     6
  Step:    16            Position(A)                                  Velocity(au)
C        -0.03058033     0.02927299    -0.01899537     0.00001511     0.00007417    -0.00021459
N        -0.04151540    -0.05001657     1.33091998     0.00002717    -0.00004827     0.00029943
H         0.94732027    -0.05410817    -0.54896947    -0.00018272     0.00000268    -0.00101176
H         0.80301885    -0.18154163     1.83522653    -0.00046234    -0.00010792     0.00042919
H        -0.96228276    -0.08422072     1.94264844     0.00025887     0.00029645    -0.00016885
H        -1.05968635    -0.00367881    -0.60543864    -0.00017144    -0.00040420    -0.00085247
     6
  Step:    17            Position(A)                                  Velocity(au)
C        -0.03053144     0.02967795    -0.02017221     0.00000280     0.00007330    -0.00021349
N        -0.04144440    -0.05027465     1.33256468    -0.00000117    -0.00004568     0.00029865
H         0.94625266    -0.05408266    -0.55463454    -0.00020755     0.00000684    -0.00105012
H         0.80096830    -0.18223656     1.83793523    -0.00028233    -0.00014567     0.00055832
H        -0.96024299    -0.08257181     1.94130862     0.00047954     0.00030419    -0.00031617
H        -1.06017724    -0.00589758    -0.60997405    -0.00000689    -0.00040409    -0.00079812
     6
  Step:    18            Position(A)                                  Velocity(au)
C        -0.03054955     0.03007777    -0.02133931    -0.00000922     0.00007231    -0.00021108
N        -0.04152819    -0.05051806     1.33419888    -0.00002885    -0.00004297     0.00029575
H         0.94504160    -0.05403308    -0.56049883    -0.00023498     0.00001146    -0.00108445
H         0.79991910    -0.18314099     1.84135641    -0.00010091    -0.00018375     0.00068673
H        -0.95701781    -0.08088095     1.93917715     0.00068888     0.00031175    -0.00045600
H        -1.05976202    -0.00811532    -0.61420126     0.00015781    -0.00040392    -0.00074079
     6
  Step:    19            Position(A)                                  Velocity(au)
C        -0.03063268     0.03047174    -0.02248950    -0.00002082     0.00007117    -0.00020734
N        -0.04176113    -0.05074639     1.33581146    -0.00005513    -0.00004022     0.00029086
H         0.94367304    -0.05395686    -0.56653973    -0.00026485     0.00001655    -0.00111440
H         0.79986051    -0.18425378     1.84547425     0.00007532    -0.00022106     0.00081004
H        -0.95268038    -0.07914939     1.93630261     0.00088274     0.00031899    -0.00058553
H        -1.05844481    -0.01033185    -0.61810650     0.00032089    -0.00040368    -0.00068127
