     6
  Step:   120            Position(A)                                  Velocity(au)
C        -0.03903180    -0.03491548    -0.10782606    -0.00000557    -0.00003135    -0.00001149
N        -0.04478362    -0.12896382     1.40701269    -0.00003067    -0.00007439    -0.00005383
H         0.90972211     0.35788559    -0.41303745    -0.00030187     0.00018947     0.00093486
H         0.81961188     0.33343968     1.76062665     0.00030752     0.00064902    -0.00035886
H        -0.87363919     0.40946988     1.73391341     0.00017112     0.00049218    -0.00061353
H        -0.98119956     0.43761699    -0.45694532     0.00031574     0.00007661     0.00092241
