6

C       -0.03942111    -0.09336175    -0.03638408
N       -0.03814593     0.00556763     1.35398382
H        0.82579612     0.47075669    -0.56898531
H        0.83556529    -0.30158425     1.87164484
H       -0.95185199    -0.17387583     1.82167076
H       -0.92262222     0.37004681    -0.61416789
