     6
  Step:   120            Position(A)                                  Velocity(au)
C        -0.03489890     0.06760918     0.00925054     0.00015105    -0.00003564     0.00029651
N        -0.04787401    -0.01335447     1.32268222    -0.00008865    -0.00008226    -0.00028930
H         0.66312322    -0.70016368    -0.49856156    -0.00085822    -0.00087830     0.00014523
H         0.81970405    -0.01144181     1.92161623    -0.00032767     0.00183999    -0.00042777
H        -0.71741267    -0.74147937     1.68357500     0.00059056    -0.00079101     0.00019965
H        -0.89722568     0.16323156    -0.70527552     0.00002742     0.00139706     0.00056988
