     6
  Step:     0            Position(A)                                  Velocity(au)
C        -0.03428947     0.01945264     0.01064372     0.00010549     0.00013775    -0.00004685
N        -0.03601641    -0.05463321     1.30994216    -0.00010731    -0.00014769     0.00008507
H         0.89857994    -0.02959879    -0.55568617    -0.00010377    -0.00038728     0.00006784
H         0.79831316    -0.11664938     1.83084941     0.00036926     0.00056168     0.00032133
H        -0.99703560    -0.08056168     1.79836526     0.00108147     0.00061258    -0.00040837
H        -1.00370362     0.08443527    -0.51173599    -0.00111289    -0.00037611    -0.00060470
     6
  Step:     1            Position(A)                                  Velocity(au)
C        -0.03372173     0.02021264     0.01030722     0.00010148     0.00014029    -0.00007614
N        -0.03667299    -0.05544311     1.31048163    -0.00013155    -0.00014858     0.00011178
H         0.89818471    -0.03173857    -0.55556025    -0.00004068    -0.00039554    -0.00002288
H         0.80084377    -0.11361411     1.83308882     0.00054827     0.00054982     0.00049167
H        -0.99064287    -0.07722716     1.79603852     0.00124474     0.00060654    -0.00043615
H        -1.00987361     0.08240344    -0.51526153    -0.00113369    -0.00036786    -0.00067865
     6
  Step:     2            Position(A)                                  Velocity(au)
C        -0.03317944     0.02098723     0.00981088     0.00009628     0.00014304    -0.00010518
N        -0.03745530    -0.05625846     1.31116482    -0.00015290    -0.00014966     0.00013755
H         0.89813496    -0.03392540    -0.55593647     0.00002172    -0.00040439    -0.00011520
H         0.80431032    -0.11063519     1.83622749     0.00070839     0.00054112     0.00064799
H        -0.98342014    -0.07392713     1.79359443     0.00138257     0.00059993    -0.00045006
H        -1.01610434     0.08041146    -0.51915938    -0.00113529    -0.00036140    -0.00074086
     6
  Step:     3            Position(A)                                  Velocity(au)
C        -0.03266854     0.02177738     0.00915665     0.00009008     0.00014590    -0.00013371
N        -0.03834559    -0.05708030     1.31198631    -0.00017063    -0.00015089     0.00016219
H         0.89842230    -0.03616222    -0.55682038     0.00008172    -0.00041359    -0.00020785
H         0.80859291    -0.10769474     1.84017726     0.00084386     0.00053556     0.00078624
H        -0.97551870    -0.07066446     1.79111525     0.00149010     0.00059270    -0.00044765
H        -1.02229265     0.07844999    -0.52336587    -0.00111815    -0.00035647    -0.00079136
     6
  Step:     4            Position(A)                                  Velocity(au)
C        -0.03219381     0.02258364     0.00834793     0.00008311     0.00014880    -0.00016144
N        -0.03932220    -0.05790944     1.31293944    -0.00018406    -0.00015222     0.00018544
H         0.89902907    -0.03845072    -0.55821063     0.00013762    -0.00042292    -0.00029951
H         0.81354346    -0.10477537     1.84483014     0.00095019     0.00053299     0.00090320
H        -0.96711624    -0.06744213     1.78869642     0.00156258     0.00058487    -0.00042662
H        -1.02833862     0.07651116    -0.52781803    -0.00108309    -0.00035278    -0.00083035
     6
  Step:     5            Position(A)                                  Velocity(au)
C        -0.03175888     0.02340603     0.00738965     0.00007558     0.00015164    -0.00018808
N        -0.04036019    -0.05874639     1.31401605    -0.00019267    -0.00015360     0.00020700
H         0.89992865    -0.04079125    -0.56009860     0.00018785    -0.00043214    -0.00038881
H         0.81899305    -0.10186096     1.85006310     0.00102427     0.00053314     0.00099658
H        -0.95841566    -0.06426284     1.78644574     0.00159583     0.00057657    -0.00038494
H        -1.03414744     0.07458863    -0.53245439    -0.00103121    -0.00035009    -0.00085820
     6
  Step:     6            Position(A)                                  Velocity(au)
C        -0.03136619     0.02424415     0.00628832     0.00006770     0.00015435    -0.00021336
N        -0.04143206    -0.05959141     1.31520622    -0.00019610    -0.00015498     0.00022655
H         0.90108609    -0.04318291    -0.56246834     0.00023096    -0.00044104    -0.00047445
H         0.82475974    -0.09893725     1.85574324     0.00106452     0.00053564     0.00106513
H        -0.94964105    -0.06112839     1.78448108     0.00158663     0.00056802    -0.00032114
H        -1.03963095     0.07267744    -0.53721578    -0.00096391    -0.00034818    -0.00087541
     6
  Step:     7            Position(A)                                  Velocity(au)
C        -0.03101707     0.02509717     0.00505197     0.00005969     0.00015687    -0.00023701
N        -0.04250878    -0.06044450     1.31649828    -0.00019418    -0.00015635     0.00024379
H         0.90245915    -0.04562356    -0.56529691     0.00026577    -0.00044943    -0.00055520
H         0.83065660    -0.09599217     1.86173331     0.00107084     0.00054010     0.00110860
H        -0.94103161    -0.05803922     1.78292717     0.00153312     0.00055956    -0.00023440
H        -1.04470863     0.07077381    -0.54204594    -0.00088275    -0.00034684    -0.00088263
     6
  Step:     8            Position(A)                                  Velocity(au)
C        -0.03071182     0.02596396     0.00368995     0.00005171     0.00015916    -0.00025883
N        -0.04356085    -0.06130553     1.31787897    -0.00018695    -0.00015769     0.00025849
H         0.90399973    -0.04811009    -0.56855506     0.00029138    -0.00045717    -0.00063003
H         0.83649956    -0.09301600     1.86789703     0.00104446     0.00054613     0.00112769
H        -0.93283319    -0.05499383     1.78191128     0.00143523     0.00055158    -0.00012485
H        -1.04930862     0.06887502    -0.54689221    -0.00078943    -0.00034592    -0.00088064
     6
  Step:     9            Position(A)                                  Velocity(au)
C        -0.03044987     0.02684317     0.00221272     0.00004391     0.00016120    -0.00027864
N        -0.04455954    -0.06217428     1.31933380    -0.00017467    -0.00015898     0.00027046
H         0.90565553    -0.05063862    -0.57220816     0.00030722    -0.00046417    -0.00069810
H         0.84211403    -0.09000130     1.87410383     0.00098765     0.00055332     0.00112385
H        -0.92528744    -0.05198851     1.78155755     0.00129491     0.00054452     0.00000636
H        -1.05336852     0.06697913    -0.55170630    -0.00068578    -0.00034531    -0.00087031
     6
  Step:    10            Position(A)                                  Velocity(au)
C        -0.03022991     0.02773327     0.00063162     0.00003641     0.00016296    -0.00029632
N        -0.04547804    -0.06305050     1.32084758    -0.00015782    -0.00016024     0.00027967
H         0.90737178    -0.05320478    -0.57621743     0.00031303    -0.00047033    -0.00075882
H         0.84733995    -0.08694271     1.88023246     0.00090348     0.00056136     0.00109911
H        -0.91862028    -0.04901722     1.78198107     0.00111628     0.00053877     0.00015695
H        -1.05683575     0.06508487    -0.55644474    -0.00057359    -0.00034494    -0.00085260
     6
  Step:    11            Position(A)                                  Velocity(au)
C        -0.03005008     0.02863270    -0.00104141     0.00002929     0.00016444    -0.00031181
N        -0.04629267    -0.06393395     1.32240501    -0.00013705    -0.00016147     0.00028614
H         0.90909316    -0.05580357    -0.58054127     0.00030887    -0.00047563    -0.00081180
H         0.85203574    -0.08383665     1.88617388     0.00079558     0.00056994     0.00105590
H        -0.91302891    -0.04607190     1.78328116     0.00090550     0.00053470     0.00032356
H        -1.05966749     0.06319112    -0.56106924    -0.00045458    -0.00034473    -0.00082846
     6
  Step:    12            Position(A)                                  Velocity(au)
C        -0.02990816     0.02953988    -0.00279410     0.00002259     0.00016565    -0.00032507
N        -0.04698370    -0.06482444     1.32399131    -0.00011314    -0.00016267     0.00029004
H         0.91076513    -0.05843032    -0.58513626     0.00029500    -0.00048012    -0.00085682
H         0.85608057    -0.08068105     1.89183306     0.00066780     0.00057882     0.00099684
H        -0.90867206    -0.04314276     1.78553583     0.00067049     0.00053253     0.00050179
H        -1.06182997     0.06129745    -0.56554658    -0.00033034    -0.00034460    -0.00079881
     6
  Step:    13            Position(A)                                  Velocity(au)
C        -0.02980176     0.03045327    -0.00461407     0.00001635     0.00016659    -0.00033607
N        -0.04753618    -0.06572181     1.32559273    -0.00008702    -0.00016385     0.00029158
H         0.91233538    -0.06108041    -0.58995821     0.00027195    -0.00048381    -0.00089382
H         0.85937521    -0.07747507     1.89712967     0.00052406     0.00058779     0.00092460
H        -0.90565989    -0.04021914     1.78879615     0.00042062     0.00053231     0.00068642
H        -1.06329808     0.05940375    -0.56984860    -0.00020238    -0.00034448    -0.00076454
     6
  Step:    14            Position(A)                                  Velocity(au)
C        -0.02972841     0.03137136    -0.00648886     0.00001056     0.00016726    -0.00034481
N        -0.04794036    -0.06662583     1.32719699    -0.00005963    -0.00016499     0.00029106
H         0.91375501    -0.06374936    -0.59496299     0.00024042    -0.00048671    -0.00092284
H         0.86184216    -0.07421888     1.90199819     0.00036828     0.00059666     0.00084184
H        -0.90404774    -0.03729051     1.79308233     0.00016612     0.00053392     0.00087160
H        -1.06405493     0.05751026    -0.57395196    -0.00007213    -0.00034428    -0.00072648
     6
  Step:    15            Position(A)                                  Velocity(au)
C        -0.02968565     0.03229265    -0.00840598     0.00000520     0.00016765    -0.00035127
N        -0.04819192    -0.06753619     1.32879352    -0.00003195    -0.00016604     0.00028876
H         0.91497929    -0.06643283    -0.60010693     0.00020121    -0.00048882    -0.00094399
H         0.86342521    -0.07091348     1.90638759     0.00020424     0.00060527     0.00075112
H        -0.90383307    -0.03434751     1.79838129    -0.00008258     0.00053703     0.00105122
H        -1.06409129     0.05561763    -0.57783781     0.00005905    -0.00034392    -0.00068538
     6
  Step:    16            Position(A)                                  Velocity(au)
C        -0.02967116     0.03321561    -0.01035297     0.00000027     0.00016776    -0.00035544
N        -0.04829186    -0.06845235     1.33037351    -0.00000493    -0.00016697     0.00028501
H         0.91596837    -0.06912653    -0.60534721     0.00015527    -0.00049013    -0.00095739
H         0.86408890    -0.06756069     1.91026085     0.00003568     0.00061346     0.00065492
H        -0.90495617    -0.03138295     1.80464616    -0.00031547     0.00054115     0.00121924
H        -1.06340540     0.05372701    -0.58149141     0.00018979    -0.00034329    -0.00064196
     6
  Step:    17            Position(A)                                  Velocity(au)
C        -0.02968271     0.03413867    -0.01231726    -0.00000427     0.00016756    -0.00035730
N        -0.04824622    -0.06937352     1.33192980     0.00002057    -0.00016771     0.00028007
H         0.91668783    -0.07182620    -0.61064199     0.00010363    -0.00049063    -0.00096322
H         0.86381785    -0.06416299     1.91359436    -0.00013377     0.00062110     0.00055564
H        -0.90730446    -0.02839265     1.81179775    -0.00052357     0.00054567     0.00137002
H        -1.06200289     0.05184012    -0.58490191     0.00031871    -0.00034226    -0.00059689
     6
  Step:    18            Position(A)                                  Velocity(au)
C        -0.02971820     0.03506016    -0.01428618    -0.00000844     0.00016704    -0.00035681
N        -0.04806545    -0.07029857     1.33345664     0.00004380    -0.00016820     0.00027417
H         0.91710917    -0.07452756    -0.61595060     0.00004743    -0.00049031    -0.00096170
H         0.86261635    -0.06072349     1.91637754    -0.00030052     0.00062806     0.00045564
H        -0.91071979    -0.02537603     1.81972776    -0.00069948     0.00054990     0.00149870
H        -1.05989698     0.04995933    -0.58806215     0.00044437    -0.00034071    -0.00055084
     6
  Step:    19            Position(A)                                  Velocity(au)
C        -0.02977567     0.03597832    -0.01624696    -0.00001225     0.00016616    -0.00035395
N        -0.04776382    -0.07122601     1.33494935     0.00006415    -0.00016838     0.00026745
H         0.91721018    -0.07722627    -0.62123372    -0.00001215    -0.00048916    -0.00095310
H         0.86050809    -0.05724581     1.91861256    -0.00046102     0.00063428     0.00035723
H        -0.91500815    -0.02233631     1.82830372    -0.00083768     0.00055315     0.00160141
H        -1.05710880     0.04808772    -0.59096863     0.00056528    -0.00033851    -0.00050450
     6
  Step:    20            Position(A)                                  Velocity(au)
C        -0.02985319     0.03689125    -0.01818666    -0.00001571     0.00016493    -0.00034872
N        -0.04735854    -0.07215403     1.33640395     0.00008115    -0.00016818     0.00026003
H         0.91697527    -0.07991800    -0.62645362    -0.00007387    -0.00048719    -0.00093776
H         0.85753593    -0.05373386     1.92031420    -0.00061181     0.00063972     0.00026273
H        -0.91995093    -0.01928044     1.83737500    -0.00093484     0.00055478     0.00167551
H        -1.05366774     0.04622901    -0.59362161     0.00067987    -0.00033555    -0.00045856
     6
  Step:    21            Position(A)                                  Velocity(au)
C        -0.02994887     0.03779702    -0.02009235    -0.00001881     0.00016333    -0.00034114
N        -0.04686896    -0.07308057     1.33781673     0.00009450    -0.00016758     0.00025192
H         0.91639562    -0.08259856    -0.63157458    -0.00013648    -0.00048445    -0.00091612
H         0.85376155    -0.05019155     1.92150973    -0.00074952     0.00064442     0.00017439
H        -0.92531681    -0.01621863     1.84677983    -0.00098972     0.00055429     0.00171967
H        -1.04961175     0.04438752    -0.59602525     0.00078660    -0.00033175    -0.00041378
     6
  Step:    22            Position(A)                                  Velocity(au)
C        -0.03006076     0.03869366    -0.02195119    -0.00002155     0.00016137    -0.00033125
N        -0.04631576    -0.07400338     1.33918401     0.00010402    -0.00016657     0.00024313
H         0.91546922    -0.08526402    -0.63656331    -0.00019874    -0.00048102    -0.00088871
H         0.84926474    -0.04662244     1.92223865    -0.00087101     0.00064852     0.00009439
H        -0.93087279    -0.01316370     1.85635203    -0.00100304     0.00055129     0.00173379
H        -1.04498734     0.04256801    -0.59818776     0.00088396    -0.00032705    -0.00037091
