     6
  Step:     0            Position(A)                                  Velocity(au)
C        -0.04685436     0.02045023     0.03757394    -0.00003171     0.00011220    -0.00013945
N        -0.04763142    -0.07208605     1.28006747     0.00010146    -0.00002276     0.00000758
H         0.94506042     0.03470825    -0.50155104    -0.00032759    -0.00029165     0.00061419
H         0.86692608    -0.00547874     1.86475807    -0.00045840    -0.00026621     0.00015320
H        -0.86396727    -0.00037201     1.83411544    -0.00047264     0.00017999     0.00087086
H        -0.94073433     0.05941226    -0.54128189     0.00022654    -0.00064296    -0.00008183
     6
  Step:     1            Position(A)                                  Velocity(au)
C        -0.04698687     0.02108727     0.03657685    -0.00001701     0.00012082    -0.00022409
N        -0.04700804    -0.07223773     1.28033702     0.00012527    -0.00003266     0.00009091
H         0.94321309     0.03310757    -0.49831555    -0.00034346    -0.00029368     0.00056613
H         0.86394920    -0.00692841     1.86532699    -0.00062606    -0.00026372     0.00005689
H        -0.86707275     0.00069648     1.83929613    -0.00064964     0.00020992     0.00101375
H        -0.93988859     0.05591019    -0.54213101     0.00008103    -0.00063855    -0.00022965
     6
  Step:     2            Position(A)                                  Velocity(au)
C        -0.04704038     0.02177164     0.03512306    -0.00000299     0.00012952    -0.00030612
N        -0.04626138    -0.07244322     1.28106168     0.00014634    -0.00004241     0.00017361
H         0.94130403     0.03149632    -0.49535934    -0.00035001    -0.00029564     0.00051210
H         0.86007894    -0.00836303     1.86538029    -0.00078354    -0.00026070    -0.00003401
H        -0.87107227     0.00192390     1.84520268    -0.00079816     0.00023801     0.00113535
H        -0.93984813     0.05242850    -0.54379351    -0.00006627    -0.00063583    -0.00037820
     6
  Step:     3            Position(A)                                  Velocity(au)
C        -0.04701962     0.02250358     0.03322945     0.00000999     0.00013816    -0.00038449
N        -0.04540779    -0.07270150     1.28223545     0.00016414    -0.00005192     0.00025465
H         0.93938579     0.02987479    -0.49271579    -0.00034656    -0.00029741     0.00045161
H         0.85538127    -0.00977909     1.86495508    -0.00092663    -0.00025678    -0.00011670
H        -0.87580045     0.00329908     1.85171100    -0.00091498     0.00026379     0.00123282
H        -0.94061324     0.04895753    -0.54626656    -0.00021187    -0.00063459    -0.00052481
     6
  Step:     4            Position(A)                                  Velocity(au)
C        -0.04693114     0.02328256     0.03091842     0.00002160     0.00014658    -0.00045806
N        -0.04446636    -0.07301101     1.28384647     0.00017817    -0.00006107     0.00033280
H         0.93751420     0.02824390    -0.49042067    -0.00033258    -0.00029886     0.00038435
H         0.84994554    -0.01117115     1.86410408    -0.00105071    -0.00025161    -0.00018816
H        -0.88107824     0.00480866     1.85868442    -0.00099801     0.00028685     0.00130409
H        -0.94216506     0.04548885    -0.54953271    -0.00035206    -0.00063453    -0.00066658
     6
  Step:     5            Position(A)                                  Velocity(au)
C        -0.04678327     0.02410715     0.02821826     0.00003153     0.00015458    -0.00052569
N        -0.04345865    -0.07336959     1.28587623     0.00018798    -0.00006974     0.00040670
H         0.93574738     0.02660529    -0.48851108    -0.00030782    -0.00029983     0.00031026
H         0.84388660    -0.01253169     1.86289662    -0.00115087    -0.00024480    -0.00024525
H        -0.88671854     0.00643724     1.86597766    -0.00104623     0.00030682     0.00134794
H        -0.94446471     0.04201588    -0.55355893    -0.00048304    -0.00063523    -0.00080047
     6
  Step:     6            Position(A)                                  Velocity(au)
C        -0.04658596     0.02497489     0.02516334     0.00003949     0.00016197    -0.00058620
N        -0.04240841    -0.07377448     1.28829895     0.00019321    -0.00007781     0.00047494
H         0.93414428     0.02496142    -0.48702404    -0.00027233    -0.00030018     0.00022962
H         0.83734610    -0.01385110     1.86141913    -0.00122219    -0.00023597    -0.00028486
H        -0.89253211     0.00816765     1.87344125    -0.00105982     0.00032338     0.00136400
H        -0.94745329     0.03853449    -0.55829604    -0.00060113    -0.00063622    -0.00092344
     6
  Step:     7            Position(A)                                  Velocity(au)
C        -0.04635054     0.02588225     0.02179396     0.00004525     0.00016855    -0.00063853
N        -0.04134120    -0.07422228     1.29108120     0.00019360    -0.00008516     0.00053609
H         0.93276287     0.02331552    -0.48599466    -0.00022658    -0.00029978     0.00014306
H         0.83049231    -0.01511771     1.85977476    -0.00126005    -0.00022480    -0.00030410
H        -0.89833341     0.00998124     1.88092607    -0.00104003     0.00033630     0.00135283
H        -0.95105267     0.03504340    -0.56367908    -0.00070294    -0.00063695    -0.00103263
     6
  Step:     8            Position(A)                                  Velocity(au)
C        -0.04608934     0.02682462     0.01815590     0.00004870     0.00017413    -0.00068178
N        -0.04028380    -0.07470901     1.29418215     0.00018901    -0.00009169     0.00058886
H         0.93165774     0.02167156    -0.48545410    -0.00017153    -0.00029852     0.00005160
H         0.82351799    -0.01631807     1.85808181    -0.00126061    -0.00021103    -0.00030063
H        -0.90394573     0.01185834     1.88828755    -0.00098914     0.00034547     0.00131581
H        -0.95516756     0.03154438    -0.56962846    -0.00078563    -0.00063691    -0.00112560
     6
  Step:     9            Position(A)                                  Velocity(au)
C        -0.04581523     0.02779641     0.01429948     0.00004978     0.00017857    -0.00071529
N        -0.03926348    -0.07523016     1.29755424     0.00017949    -0.00009732     0.00063218
H         0.93087731     0.02003409    -0.48542739    -0.00010865    -0.00029633    -0.00004335
H         0.81663511    -0.01743742     1.85647012    -0.00122136    -0.00019451    -0.00027294
H        -0.90920646     0.01377877     1.89539013    -0.00091036     0.00035086     0.00125521
H        -0.95968864     0.02804221    -0.57605223    -0.00084709    -0.00063560    -0.00120045
     6
  Step:    10            Position(A)                                  Velocity(au)
C        -0.04554105     0.02879123     0.01027822     0.00004859     0.00018175    -0.00073874
N        -0.03830708    -0.07578080     1.30114453     0.00016524    -0.00010199     0.00066533
H         0.93046113     0.01840806    -0.48593148    -0.00003986    -0.00029319    -0.00014011
H         0.81006688    -0.01846030     1.85507586    -0.00114154    -0.00017525    -0.00022067
H        -0.91397175     0.01572246     1.90211141    -0.00080772     0.00035262     0.00117396
H        -0.96449676     0.02454437    -0.58284924    -0.00088611    -0.00063265    -0.00125599
     6
  Step:    11            Position(A)                                  Velocity(au)
C        -0.04527904     0.02980211     0.00614701     0.00004528     0.00018362    -0.00075216
N        -0.03743994    -0.07635574     1.30489663     0.00014670    -0.00010570     0.00068800
H         0.93043739     0.01679857    -0.48697364     0.00003255    -0.00028913    -0.00023684
H         0.80403742    -0.01937142     1.85403490    -0.00102251    -0.00015338    -0.00014478
H        -0.91812016     0.01767021     1.90834558    -0.00068575     0.00035102     0.00107559
H        -0.96946750     0.02106045    -0.58991287    -0.00090242    -0.00062782    -0.00129183
     6
  Step:    12            Position(A)                                  Velocity(au)
C        -0.04504030     0.03082186     0.00196017     0.00004013     0.00018420    -0.00075598
N        -0.03668479    -0.07694972     1.30875303     0.00012447    -0.00010845     0.00070034
H         0.93082109     0.01521065    -0.48855065     0.00010608    -0.00028422    -0.00033163
H         0.79875910    -0.02015650     1.85347474    -0.00086789    -0.00012921    -0.00004768
H        -0.92155538     0.01960439     1.91400626    -0.00054934     0.00034647     0.00096401
H        -0.97447650     0.01760141    -0.59713542    -0.00089671    -0.00062101    -0.00130844
     6
  Step:    13            Position(A)                                  Velocity(au)
C        -0.04483429     0.03184338    -0.00223056     0.00003348     0.00018357    -0.00075098
N        -0.03606066    -0.07755760     1.31265753     0.00009933    -0.00011032     0.00070294
H         0.93161296     0.01364897    -0.49064869     0.00017820    -0.00027858    -0.00042272
H         0.79441972    -0.02080328     1.85350654    -0.00068345    -0.00010320     0.00006693
H        -0.92420782     0.02150971     1.91902844    -0.00040345     0.00033950     0.00084329
H        -0.97940461     0.01417857    -0.60441261    -0.00087058    -0.00061234    -0.00130708
     6
  Step:    14            Position(A)                                  Velocity(au)
C        -0.04466853     0.03286006    -0.00637794     0.00002571     0.00018187    -0.00073825
N        -0.03558198    -0.07817455     1.31655777     0.00007217    -0.00011138     0.00069684
H         0.93279962     0.01211763    -0.49324413     0.00024651    -0.00027236    -0.00050862
H         0.79117075    -0.02130227     1.85421786    -0.00047671    -0.00007590     0.00019428
H        -0.92603487     0.02337388     1.92336928    -0.00025283     0.00033075     0.00071748
H        -0.98414248     0.01080268    -0.61164778    -0.00082627    -0.00060205    -0.00128965
     6
  Step:    15            Position(A)                                  Velocity(au)
C        -0.04454839     0.03386604    -0.01044083     0.00001719     0.00017928    -0.00071906
N        -0.03525800    -0.07879626     1.32040731     0.00004395    -0.00011176     0.00068333
H         0.93435453     0.01061993    -0.49630517     0.00030895    -0.00026576    -0.00058818
H         0.78911805    -0.02164740     1.85566718    -0.00025632    -0.00004796     0.00032894
H        -0.92701959     0.02518813     1.92700775    -0.00010179     0.00032092     0.00059033
H        -0.98859386     0.00748293    -0.61875521    -0.00076646    -0.00059057    -0.00125852
     6
  Step:    16            Position(A)                                  Velocity(au)
C        -0.04447712     0.03485649    -0.01438520     0.00000829     0.00017601    -0.00069478
N        -0.03509253    -0.07941908     1.32416717     0.00001560    -0.00011160     0.00066388
H         0.93623999     0.00915823    -0.49979394     0.00036383    -0.00025893    -0.00066069
H         0.78831643    -0.02183634     1.85788087    -0.00003133    -0.00002002     0.00046528
H        -0.92716843     0.02694754     1.92994312     0.00004591     0.00031071     0.00046520
H        -0.99267767     0.00422621    -0.62566240    -0.00069400    -0.00057837    -0.00121628
     6
  Step:    17            Position(A)                                  Velocity(au)
C        -0.04445603     0.03582773    -0.01818449    -0.00000068     0.00017227    -0.00066675
N        -0.03508409    -0.08004008     1.32780662    -0.00001201    -0.00011103     0.00064000
H         0.93840961     0.00773398    -0.50366895     0.00040994    -0.00025206    -0.00072586
H         0.78876884    -0.02187049     1.86085302     0.00018951     0.00000732     0.00059793
H        -0.92650795     0.02865121     1.93219260     0.00018718     0.00030086     0.00034488
H        -0.99632882     0.00103665    -0.63231132    -0.00061166    -0.00056599    -0.00116554
