     6
  Step:   300            Position(A)                                  Velocity(au)
C        -0.04563543     0.01837471     0.03289441    -0.00000763    -0.00002763    -0.00002851
N        -0.05380791    -0.05202257     1.28309612    -0.00002560    -0.00005222     0.00004649
H        -0.05024171    -0.92158512    -0.51840015    -0.00154115     0.00035414    -0.00056063
H        -0.00773458     0.72852679     1.95287240    -0.00134926    -0.00009273     0.00024216
H         0.24370840    -0.91495395     1.76979789     0.00179367     0.00092516     0.00014177
H        -0.10713194     0.94221224    -0.53455259     0.00154342    -0.00013171    -0.00012962
