     6
  Step:   120            Position(A)                                  Velocity(au)
C        -0.03650872     0.01793148    -0.21025437     0.00004486     0.00009282     0.00025683
N        -0.04537801    -0.05661861     1.49729331    -0.00010541    -0.00001576    -0.00022740
H         0.94466987     0.26169398    -0.66329354     0.00004729     0.00153503     0.00032147
H         0.85517205    -0.38352237     1.98287233     0.00022170    -0.00195551     0.00028376
H        -0.93291863     0.19843814     1.97016781     0.00127587     0.00195612    -0.00055182
H        -1.01421571    -0.17326918    -0.69920266    -0.00061454    -0.00242261     0.00004625
