     6
  Step:   600            Position(A)                                  Velocity(au)
C        -0.19821319    -0.02263439    -0.02628832    -0.00015626    -0.00027901     0.00150968
N         0.07630816    -0.06263062     1.33752676    -0.00009047    -0.00034477    -0.00152379
H         0.05415165    -1.15781487    -0.29927244     0.00297148    -0.00382842     0.00344906
H        -0.15524319     0.73790996     1.84279085    -0.00156966     0.00047328    -0.00290911
H         1.01923904    -0.29461107     1.63843323     0.00173219     0.00242909     0.00225141
H        -0.82970531     1.18396431    -0.56303148    -0.00001478     0.00904169     0.00039449
