14

C       -4.79423529    -1.15338070    -0.44485282
C       -4.83799247     0.21585877    -0.34365911
H       -4.37747959    -1.75421026     0.37709481
H       -4.75700815    -1.53465299    -1.48803085
H       -4.92911409     0.88937775    -1.26797403
C       -4.37860879     0.88388727     0.85378259
C       -2.83431367     0.89029212     0.95862363
H       -4.84453825     1.64052801     1.38319052
H       -2.46472375     1.41672319     1.84129210
C       -2.01550016     0.84731895    -0.15313736
H       -2.42993011     0.52445250    -1.08349948
N       -0.79677871     1.31799552    -0.30811112
H       -0.20976596     1.24046851    -1.12867425
H       -0.14400970     1.83780795     0.28557373
