     6
  Step:   120            Position(A)                                  Velocity(au)
C        -0.04504332     0.06759986    -0.13138910    -0.00000550    -0.00007684     0.00044546
N        -0.04062996     0.01064286     1.44788922    -0.00005786    -0.00004444    -0.00042160
H         0.76630769    -0.64405704    -0.44470292    -0.00099316    -0.00102092     0.00085794
H         0.88037094    -0.29166925     1.89821061     0.00030219     0.00161275     0.00054374
H        -0.76740992    -0.72909020     1.61485211     0.00131969    -0.00082667    -0.00073199
H        -0.99086098     0.04161839    -0.73105585     0.00024082     0.00176799    -0.00011899
