    14
  Step:   600            Position(A)                                  Velocity(au)
C        -6.05511994    -0.84925220    -0.32239987     0.00057313    -0.00034451     0.00009613
C        -4.79933868    -0.74353696     0.34277796     0.00031584     0.00027674     0.00007020
H        -6.27916078    -0.35532296    -1.29107336    -0.00166469    -0.00158826     0.00190173
H        -6.56689495    -1.90205564    -0.12296321    -0.00254546    -0.00004956    -0.00005675
H        -4.68596223    -1.51396976     1.10246660    -0.00396224    -0.00035245    -0.00175099
C        -3.84804391     0.56343180     0.06261044     0.00088218     0.00050297    -0.00016852
C        -2.42343137     0.48461038     0.17163704    -0.00052399     0.00006048     0.00003577
H        -4.14466135     1.70872245     0.07461874     0.00025238    -0.00059724    -0.00167056
H        -2.04427567    -0.52101654     0.25711746    -0.00018025     0.00082172    -0.00163735
C        -1.83492058     1.67653779    -0.00201323     0.00008714     0.00004371     0.00014824
H        -2.47778490     2.55914299    -0.35823217    -0.00116993     0.00077017     0.00200433
N        -0.53673336     1.82683888     0.13897217    -0.00047165    -0.00032085    -0.00005918
H        -0.22607895     2.75613222    -0.09137445     0.00219296    -0.00103734     0.00000498
H        -0.15181630     1.03675208     0.50201087    -0.00226814     0.00006426    -0.00013965
