12

C       -0.03652393    -0.04254782     0.00865352
N       -0.04484678    -0.08150815     1.32200349
H        0.81478511     0.29117585    -0.63101222
H        0.81752159     0.19143820     1.83220066
H       -0.91392768     0.08844526     1.83444520
H       -0.87289741     0.39883731    -0.61772880
C       -0.03679998    -0.04315679     0.00685359
N       -0.04477508    -0.08110332     1.32301990
H        0.81164361     0.29185732    -0.62723585
H        0.82059684     0.19254076     1.83166402
H       -0.91725869     0.08589884     1.83306612
H       -0.86720704     0.40123044    -0.61226580
