     6
  Step:   120            Position(A)                                  Velocity(au)
C        -0.01846354     0.13219645    -0.02241676     0.00008771     0.00012303    -0.00010905
N        -0.04331669    -0.10923843     1.34189752     0.00005349    -0.00010919    -0.00001447
H         0.71631132    -0.59052414    -0.58459752    -0.00069672    -0.00072153     0.00079139
H         0.82223650     0.15672555     1.86414737    -0.00070933     0.00092109     0.00005040
H        -0.96212757    -0.09597331     1.84979977    -0.00011794    -0.00036170     0.00008080
H        -0.96741743    -0.19725122    -0.61765752    -0.00026448     0.00021341     0.00057793
