14

C       -5.90321036    -0.90448368    -0.05609038
C       -4.74691461    -0.52336741     0.49442619
H       -5.97100516    -1.00713956    -1.13025625
H       -6.76580668    -1.36663310     0.41479974
H       -4.37628441    -0.43069779     1.50140699
C       -3.88808225     0.42869638    -0.38862842
C       -2.56151206     0.57045121    -0.34421816
H       -4.37303473     1.40143468    -0.32542898
H       -2.20237175    -0.27100332     0.19751355
C       -1.86761575     1.69438654     0.15972518
H       -2.45472375     2.32320018     0.80658481
N       -0.56341208     1.69105417     0.32229435
H       -0.02127344     2.15690199     0.97488993
H        0.03642218     1.25358722    -0.29852630
