     6
  Step:   300            Position(A)                                  Velocity(au)
C        -0.03690372     0.00084163     0.02131958     0.00005283     0.00002785    -0.00011332
N        -0.04331081    -0.04167908     1.29630823     0.00000260    -0.00007407     0.00007447
H         0.89514781    -0.18148009    -0.50558446    -0.00002912    -0.00020128    -0.00011691
H         0.80873822     0.09378415     1.84139480    -0.00009084     0.00056136     0.00004535
H        -0.91360151    -0.24942754     1.78798895    -0.00027275     0.00022902    -0.00018788
H        -0.96162853     0.23652219    -0.49973525    -0.00027290     0.00010829     0.00057487
