14

C   -6.05594294   -0.79656900   -0.04475851   -0.00016012   -0.00042406    0.00019836
C   -4.67115455   -0.71950949    0.12696298    0.00005311    0.00009737    0.00007059
H   -6.46181428    0.14365202   -0.41238580   -0.00076384    0.00075089   -0.00033584
H   -6.64070232   -1.65889799    0.20148115   -0.00005536   -0.00111369   -0.00069038
H   -4.10390665   -1.62085596    0.41852721    0.00035619    0.00072076    0.00030844
C   -3.94422793    0.45782163   -0.09145458   -0.00015228    0.00012774   -0.00029271
C   -2.55662787    0.50937366    0.15466225   -0.00033031    0.00003313    0.00000182
H   -4.22616774    1.39014894   -0.58050222   -0.00051868    0.00103290   -0.00030293
H   -2.08176283   -0.33205615    0.72652316    0.00022645    0.00028195   -0.00033818
C   -1.74631022    1.66685476   -0.13114914    0.00054213    0.00027283    0.00000926
H   -2.24110513    2.50137258   -0.64698818   -0.00017157   -0.00047302    0.00073535
N   -0.58107429    1.82046946    0.31570779    0.00012299   -0.00022790    0.00009001
H    0.02804311    2.63063327    0.07036939   -0.00005766    0.00007861   -0.00065203
H   -0.07273034    0.96718773    0.67960308   -0.00015916    0.00061340    0.00017596
