     6
  Step:   300            Position(A)                                  Velocity(au)
C        -0.03533551     0.00300965     0.02480686     0.00002369     0.00001891    -0.00014238
N        -0.04442070    -0.04708989     1.29418885     0.00000773    -0.00002870     0.00011833
H         0.88514660    -0.18509918    -0.51904837    -0.00000727    -0.00056570     0.00009487
H         0.80229687     0.08856699     1.84395464     0.00003642     0.00067934    -0.00008720
H        -0.91627669    -0.20594688     1.79783094    -0.00021062    -0.00038135    -0.00048483
H        -0.94574560     0.25119601    -0.51078675    -0.00020823     0.00044127     0.00052929
