6

C       -0.05559746    -0.08622515    -0.08896148
N       -0.00575090     0.00429203     1.33017841
H        0.79791320     0.70856118    -0.38989299
H        0.61275504     0.31497361     2.18452723
H       -1.12077155    -0.00695817     1.70953010
H       -0.76060004    -0.71814443    -0.03697422
