12

C       -0.05960756     0.08579997    -0.02042689
N       -0.03198313    -0.05153972     1.34163214
H        0.90025318     0.08517046    -0.64380967
H        0.70361440    -0.63124060     1.80126116
H       -0.90121110     0.20297998     1.90452976
H       -0.76085740    -0.63288000    -0.57033118
C       -0.06026247     0.08591582    -0.02084403
N       -0.03189660    -0.05205642     1.34124891
H        0.90079421     0.09228504    -0.64034850
H        0.69863037    -0.63547989     1.80256205
H       -0.89562494     0.21156107     1.90676946
H       -0.75539910    -0.63853672    -0.56703680
