     6
  Step:   300            Position(A)                                  Velocity(au)
C        -0.03339318     0.01353785     0.01440655    -0.00000974    -0.00000484     0.00007988
N        -0.04839803    -0.05248883     1.30100120     0.00001093     0.00000548    -0.00004790
H         0.09313890     0.95829782    -0.50369060     0.00101369    -0.00035577    -0.00018287
H        -0.18750815    -0.92890453     1.81143357     0.00108720    -0.00010294    -0.00001985
H         0.08754357     0.75748948     1.91318117    -0.00114893     0.00014276     0.00013739
H        -0.13562467    -0.88857633    -0.57970509    -0.00098782     0.00029752    -0.00022094
