6

C       -0.04309912    -0.04477793     0.00175762
N       -0.04267053    -0.07984298     1.33078355
H        0.85989972     0.30960741    -0.63503332
H        0.84628138     0.11746320     1.82030888
H       -0.93568718     0.13040375     1.83565597
H       -0.87689683     0.41584902    -0.64288040
