     6
  Step:   300            Position(A)                                  Velocity(au)
C        -0.02151480     0.02831185     0.02756339    -0.00007865     0.00009005    -0.00004696
N        -0.04013234    -0.05701205     1.29141736     0.00025381    -0.00003681     0.00003654
H         0.23885582     0.93147990    -0.53069339    -0.00077220    -0.00002643    -0.00061619
H        -0.16923507    -0.97644426     1.72981405    -0.00227041     0.00027586     0.00027079
H        -0.21663485     0.72773788     1.91809146    -0.00044505    -0.00044403     0.00026530
H        -0.25186523    -0.89764626    -0.49961654     0.00089779    -0.00036689     0.00013195
