     6
  Step:   120            Position(A)                                  Velocity(au)
C        -0.03559046    -0.02925537     0.01116446     0.00013565    -0.00001697     0.00014129
N        -0.05498908    -0.08855774     1.31400064    -0.00009444     0.00013256    -0.00017240
H         0.71440192     0.69619876    -0.46996103    -0.00097649     0.00108449     0.00044355
H         0.77229859    -0.34855192     1.88999274    -0.00041414    -0.00187672    -0.00036052
H        -0.61599903     0.69068031     1.77505706     0.00096785     0.00070253     0.00020889
H        -0.89541588    -0.12884874    -0.69591290     0.00011866    -0.00155024     0.00042029
