6

C       -0.04655678     0.01207005     0.03007601
N       -0.03274283    -0.05305634     1.29035333
H        0.17580846    -0.86110713    -0.58690735
H        0.02964845     0.77376471     1.88493664
H       -0.14584237    -0.94272870     1.78375710
H       -0.26278917     0.95375429    -0.47936063
