     6
  Step:   300            Position(A)                                  Velocity(au)
C        -0.05330549     0.00234147     0.02637804     0.00005700    -0.00007646     0.00007431
N        -0.04710594    -0.05359627     1.28973989    -0.00022055     0.00005847    -0.00007018
H         0.20118996     0.97733180    -0.38547880    -0.00130289     0.00022764    -0.00005267
H         0.06898447    -0.90514076     1.83880339    -0.00005930     0.00044234     0.00044178
H         0.15268420     0.80054132     1.82782049     0.00252765    -0.00066400     0.00038629
H        -0.34602845    -0.82562097    -0.62610153     0.00122020     0.00009256    -0.00068566
