6

C       -0.37215308    -0.08442632     0.05351447
N        0.29204540     0.04615516     1.30660229
H       -0.67659262     1.09040445    -0.10108292
H        0.79549888    -0.96418902     1.33262904
H       -0.26338178     0.21980909     1.93066183
H       -0.69225931    -0.65151886    -1.06488140
