     6
  Step:   300            Position(A)                                  Velocity(au)
C        -0.02196522     0.02350650     0.02331013    -0.00005852     0.00005997     0.00015781
N        -0.04495302    -0.05360316     1.29345189     0.00021461    -0.00002483    -0.00014842
H         0.26890021     0.92987408    -0.51212873    -0.00115206    -0.00004549    -0.00069160
H        -0.16965774    -0.97664499     1.72466530    -0.00245637     0.00042254     0.00040123
H        -0.16338631     0.74776329     1.91556389     0.00006897    -0.00055383     0.00040130
H        -0.26237145    -0.90597804    -0.48810232     0.00125446    -0.00019281     0.00007107
