     6
  Step:   600            Position(A)                                  Velocity(au)
C         0.14079483    -0.02647395     0.05339184     0.00002243    -0.00084863     0.00041634
N        -0.12844516     0.00244208     1.26870031    -0.00067900     0.00109535    -0.00027876
H        -0.81427459    -0.82562696    -0.45852982    -0.00148855     0.00164627    -0.00079353
H        -0.39463093     0.91446854     1.82577340     0.00357470    -0.00526590     0.00058683
H        -0.76697530    -1.22109548     1.88607832     0.00372269    -0.00388076     0.00041485
H         0.87028451     0.74371050    -0.62783112     0.00335953     0.00239129    -0.00129555
