     6
  Step:   600            Position(A)                                  Velocity(au)
C         0.17544393    -0.10606263    -0.01857746     0.00007471    -0.00040216    -0.00138447
N        -0.33315671     0.02116871     1.31488971     0.00044806     0.00071546     0.00097557
H        -0.01645003    -0.98144647    -0.45084808     0.00488329     0.00167077    -0.00168586
H         0.32636715     1.18853852     1.46963328    -0.00142251    -0.00347989     0.00117950
H         0.17990347    -0.77472625     1.99765869    -0.00481521    -0.00060481     0.00092838
H         0.83627341     0.86789977    -0.17514727    -0.00576225    -0.00273622     0.00251856
