     6
  Step:   600            Position(A)                                  Velocity(au)
C        -0.36168012    -0.09968662    -0.07188932    -0.00084276     0.00047496    -0.00136330
N         0.21552580     0.02378082     1.45629037     0.00088581    -0.00015541     0.00093566
H         0.29209100    -0.96073268    -0.27416036     0.00353202    -0.00008731     0.00263461
H         0.82531416    -0.06290945     2.51522366    -0.00489883     0.00135377    -0.00418613
H        -1.29821199     0.83395101    -0.28736639    -0.00140358     0.00000173     0.00113608
H         0.28265596     0.37716026    -0.44213614     0.00050314    -0.00476817     0.00365828
