    14
  Step:   600            Position(A)                                  Velocity(au)
C        -5.17772311    -0.10160653     0.85827461     0.00044701     0.00049606    -0.00057928
C        -4.80168504    -0.63466207    -0.30507032     0.00038066     0.00002670     0.00040381
H        -4.76354575     0.85740629     1.13878535     0.00073554     0.00071433    -0.00036115
H        -6.12449072    -0.49487294     1.34668202     0.00164170     0.00164071    -0.00113419
H        -5.25834811    -1.52611122    -0.64977972     0.00265779    -0.00195257    -0.00185642
C        -3.77723524     0.13470729    -1.14384769    -0.00019160    -0.00000263     0.00089369
C        -2.76428117     0.97397485    -0.71237090    -0.00012102     0.00027094     0.00035563
H        -3.99416976    -0.00073245    -2.24100836     0.00151413     0.00136563     0.00144246
H        -2.28451548     1.18814455    -1.56498465    -0.00145147     0.00152630     0.00078109
C        -2.11829394     1.21348262     0.62411563    -0.00041311    -0.00120431    -0.00095698
H        -3.03423920     1.34973077     1.17896053     0.00027595    -0.00036046    -0.00187710
N        -0.84795662     1.40385461     0.85134511    -0.00032652     0.00042492     0.00013280
H        -0.59516738     1.75881512     1.83500812    -0.00011994    -0.00185648     0.00020037
H        -0.02928681     1.10323438     0.22962210    -0.00193107    -0.00205813    -0.00043312
