6

C       -0.03607597    -0.02080842    -0.20651277
N       -0.04357408    -0.14409248     1.50487391
H        0.95226782     0.21674634    -0.62147741
H        0.73273901     0.48337620     1.74968140
H       -0.92536928     0.33691205     1.82197153
H       -0.93715911     0.54352041    -0.50958401
