12

C       -0.04634109    -0.02293063    -0.15236815
N       -0.05055481    -0.13471249     1.45906824
H        0.83383246     0.60913643    -0.42247856
H        0.86658449     0.05293421     1.92983670
H       -0.67328598     0.68362874     1.66169323
H       -0.98533715     0.12976563    -0.73708859
C       -0.04614560    -0.02293820    -0.15009041
N       -0.05059727    -0.13451702     1.45719345
H        0.83005097     0.61584213    -0.41810600
H        0.86467807     0.04426801     1.92876643
H       -0.66805782     0.69140146     1.65922217
H       -0.98661684     0.12132718    -0.73900873
