6

C       -0.01323777    -0.06311105    -0.02856126
N       -0.05022413    -0.05259256     1.34012850
H        0.67460348     0.73432377    -0.48753683
H        0.76487463    -0.40643350     1.87551229
H       -0.82054245     0.45189471     1.86331165
H       -0.97621004     0.03331204    -0.64179053
