12

C       -0.03587590     0.01201047     0.01643854
N       -0.03440361    -0.08896295     1.31893942
H        0.75473382    -0.34042261    -0.70882816
H        0.69845143     0.45244505     1.83503075
H       -0.92969259    -0.23693696     1.85196263
H       -0.83086538     0.54828010    -0.61045069
C       -0.03626657     0.01204571     0.01496019
N       -0.03392849    -0.08853365     1.31983580
H        0.75436665    -0.35053313    -0.70668840
H        0.69457911     0.45797330     1.83655841
H       -0.92913074    -0.24742868     1.85070040
H       -0.82913498     0.55696852    -0.60769625
