6

C       -0.03626657     0.01204571     0.01496019
N       -0.03392849    -0.08853365     1.31983580
H        0.75436665    -0.35053313    -0.70668840
H        0.69457911     0.45797330     1.83655841
H       -0.92913074    -0.24742868     1.85070040
H       -0.82913498     0.55696852    -0.60769625
