6

C       -0.01900869     0.05788955     0.02307361
N       -0.04561753    -0.05406507     1.30507352
H        0.58482252    -0.70119350    -0.58285901
H        0.72039526     0.33353619     1.90969047
H       -0.79193169    -0.58466147     1.81779364
H       -0.86579340     0.34402676    -0.66327891
