     6
  Step:   300            Position(A)                                  Velocity(au)
C        -0.03253008     0.01138769     0.02027243    -0.00002398     0.00002093    -0.00012998
N        -0.04892643    -0.05155014     1.29483289     0.00003095    -0.00000484     0.00010771
H         0.06222404     0.98374638    -0.45434142    -0.00022247     0.00009416    -0.00026746
H        -0.28318579    -0.91491975     1.78569894    -0.00044165     0.00005419     0.00001804
H         0.19769114     0.75168078     1.87820331     0.00018003    -0.00012683     0.00029780
H        -0.12212682    -0.90962550    -0.55252097     0.00033986    -0.00020357     0.00000368
