     6
  Step:   120            Position(A)                                  Velocity(au)
C        -0.03961553     0.06252801    -0.11832631    -0.00009537     0.00026063     0.00033401
N        -0.03965192     0.00011967     1.42520122    -0.00003630     0.00012539    -0.00026730
H         0.93915546    -0.29444795    -0.51792558     0.00004341    -0.00191726     0.00087468
H         0.80935742    -0.50106812     1.80269166     0.00045025    -0.00086963    -0.00040437
H        -0.92428318    -0.42209053     1.78439571     0.00066396    -0.00088687    -0.00130348
H        -1.01409711    -0.19891954    -0.57223953     0.00048327    -0.00117440     0.00056763
