12

C       -0.03361271     0.07361197    -0.20135735
N       -0.03881100     0.01494629     1.51321310
H        0.93573609    -0.17391878    -0.68788429
H        0.66868066    -0.77654983     1.67218303
H       -0.94062960    -0.36708948     1.84977600
H       -0.93686164    -0.43706992    -0.57079595
C       -0.03358282     0.07355346    -0.20074001
N       -0.03842160     0.01496323     1.51263770
H        0.93701356    -0.16774525    -0.68830909
H        0.66233135    -0.78042296     1.66656338
H       -0.94367772    -0.36245062     1.85139332
H       -0.93450908    -0.44354728    -0.56572910
