6

C       -0.03358282     0.07355346    -0.20074001
N       -0.03842160     0.01496323     1.51263770
H        0.93701356    -0.16774525    -0.68830909
H        0.66233135    -0.78042296     1.66656338
H       -0.94367772    -0.36245062     1.85139332
H       -0.93450908    -0.44354728    -0.56572910
