6

C       -0.03620688     0.04428482    -0.15818255
N       -0.05287399    -0.00985394     1.46221288
H        0.80901908    -0.53787297    -0.60519525
H        0.86130628    -0.05449708     2.00323694
H       -0.75352241    -0.71941378     1.79177337
H       -0.96352154     0.25123524    -0.73227808
