6

C       -0.04519538     0.07280743    -0.01885223
N       -0.05799929    -0.10084564     1.34600907
H        0.90553099     0.16520077    -0.64295725
H        0.82663756    -0.35495104     1.83140751
H       -0.74817555     0.50363926     1.87534192
H       -0.85242336    -0.44985889    -0.65171979
