14

C       -4.82657535    -0.72978848     0.73092713
C       -4.76905688     0.41711406     0.12569731
H       -4.38710773    -1.60359326     0.29183856
H       -5.47980732    -0.70560754     1.60598528
H       -5.38187225     1.30508346     0.41352960
C       -3.90922489     0.48716965    -1.13334024
C       -2.52854004     0.45772952    -0.85427068
H       -4.41441678     0.11561922    -2.07542071
H       -1.69584497     0.83150971    -1.55858371
C       -2.06974916     0.71065988     0.54527797
H       -2.70126878     0.37742317     1.51536142
N       -1.29955214     1.59493823     0.73982089
H       -1.27512554     2.19571413     1.54526244
H       -0.86143833     1.95944290    -0.02514153
