14

C   -6.04282698   -0.74845165   -0.17464382   -0.00057072   -0.00009131    0.00001534
C   -4.70410265   -0.72620665    0.18502633    0.00020543    0.00009650   -0.00008042
H   -6.56875153    0.06799029   -0.62659226    0.00067614   -0.00050852   -0.00008020
H   -6.54795586   -1.72722727   -0.00991973   -0.00020817    0.00008566   -0.00064799
H   -4.20294892   -1.64715898    0.50058085   -0.00023864    0.00088653    0.00035944
C   -3.89897158    0.42359651   -0.02643850    0.00009078   -0.00009603   -0.00007478
C   -2.53110448    0.49569287    0.19021140   -0.00014873   -0.00022320    0.00016420
H   -4.41597734    1.27451986   -0.42240756    0.00030709    0.00098665    0.00048725
H   -2.04566891   -0.36890461    0.61474515    0.00190270   -0.00044419    0.00083643
C   -1.82892874    1.70527394    0.04883672    0.00057016    0.00015018   -0.00008741
H   -2.44332676    2.59842078   -0.21915298   -0.00110246   -0.00079411    0.00024038
N   -0.52262997    1.79431891    0.13409808   -0.00016748    0.00007870    0.00008873
H   -0.11072836    2.70929958    0.10543923   -0.00060090    0.00001054   -0.00027854
H    0.10043915    1.09712149    0.55042229   -0.00015919    0.00063639   -0.00139824
