14

C       -5.46469771     0.40033078     0.87014312
C       -4.67349520    -0.26993158    -0.00536758
H       -5.10041851     1.38713063     1.20718276
H       -6.45884436     0.00164249     1.10855465
H       -5.17790279    -1.13319265    -0.51921309
C       -3.61340479     0.11980308    -0.86560294
C       -2.27024086     0.50234631    -1.04319449
H       -4.11076635    -0.10672922    -1.87744630
H       -2.00288656     0.28634844    -2.01455257
C       -1.40708579     0.74032130     0.07334011
H       -0.37336886     0.41339669     0.07886890
N       -1.80003226     1.50199809     1.10402684
H       -1.19705078     1.49031093     1.96818436
H       -2.85417389     1.64012748     1.28758546
