6

C       -0.03531898     0.00585923     0.02178434
N       -0.04185885    -0.04965061     1.29273138
H        0.13697263    -0.90549304    -0.56184152
H       -0.09629935     0.80186848     1.86822322
H       -0.05976744    -0.93324272     1.80426152
H       -0.19127924     0.98723743    -0.44242376
