14

C       -4.80969759     0.12194911     1.06705817
C       -4.82626719     0.47087789    -0.28744003
H       -4.00856747    -0.57557269     1.32681421
H       -5.48020006     0.48139765     1.83840304
H       -5.77319165     1.07283025    -0.58806018
C       -3.77942636     0.33456427    -1.11212761
C       -2.35527600    -0.15620741    -0.72065744
H       -3.75860956     0.94222853    -1.98480524
H       -2.08717854    -1.04300537    -1.31002215
C       -1.51216889     0.65132898     0.09154269
H       -0.35027968     0.60627375     0.11614225
N       -2.02568180     1.51378111     1.00341785
H       -1.47530841     1.87596063     1.74761502
H       -2.94687779     1.29361315     1.38268458
