14

C       -5.17772311    -0.10160653     0.85827461
C       -4.80168504    -0.63466207    -0.30507032
H       -4.76354575     0.85740629     1.13878535
H       -6.12449072    -0.49487294     1.34668202
H       -5.25834811    -1.52611122    -0.64977972
C       -3.77723524     0.13470729    -1.14384769
C       -2.76428117     0.97397485    -0.71237090
H       -3.99416976    -0.00073245    -2.24100836
H       -2.28451548     1.18814455    -1.56498465
C       -2.11829394     1.21348262     0.62411563
H       -3.03423920     1.34973077     1.17896053
N       -0.84795662     1.40385461     0.85134511
H       -0.59516738     1.75881512     1.83500812
H       -0.02928681     1.10323438     0.22962210
