6

C       -0.03868817     0.01096292     0.02731412
N       -0.04341322    -0.05154136     1.28833694
H        0.01288673     0.96541669    -0.48816101
H       -0.30658853    -0.88396813     1.82885182
H        0.22851225     0.72165141     1.90521618
H       -0.08345414    -0.88729285    -0.58252574
