     6
  Step:   300            Position(A)                                  Velocity(au)
C        -0.03047904     0.01400306     0.02429463     0.00001497     0.00002296     0.00016574
N        -0.04850702    -0.06107659     1.29338966    -0.00000717    -0.00001790    -0.00010914
H         0.88995879    -0.04568928    -0.55383806    -0.00020350    -0.00128730    -0.00020944
H         0.78936357    -0.04570631     1.88950503     0.00003058     0.00139234    -0.00013472
H        -0.91039706    -0.03038591     1.84165843    -0.00007174    -0.00123540    -0.00016501
H        -0.94460120     0.13389417    -0.54817119     0.00016580     0.00110552     0.00005083
