     6
  Step:   120            Position(A)                                  Velocity(au)
C        -0.04673171     0.04556267     0.02021291    -0.00006118    -0.00004047     0.00027443
N        -0.05079151    -0.07905370     1.31165259    -0.00003265     0.00007138    -0.00026207
H         0.81962683     0.30167022    -0.65760611    -0.00017782     0.00120133     0.00041464
H         0.75726164    -0.41484533     1.87894916    -0.00044069    -0.00142307    -0.00041674
H        -0.74896178     0.49577272     1.87325521     0.00089971     0.00091999    -0.00018979
H        -0.77818905    -0.49672646    -0.67058710     0.00090148    -0.00120790     0.00056369
