14

C       -4.96741550    -0.50030242    -1.10097012
C       -4.73528442     0.37058319    -0.10347852
H       -4.49850122    -1.44532529    -0.82455482
H       -5.65439564    -0.56856612    -1.99843478
H       -5.01346611     1.40829566    -0.19699979
C       -3.70740599    -0.02853052     0.98379196
C       -2.87970970     1.06670445     1.23022416
H       -3.95922177    -0.83365699     1.78947848
H       -2.24629669     1.15158436     2.24961526
C       -1.98410124     1.58972703     0.13582531
H       -1.70615605     2.58335514    -0.00716147
N       -1.24138275     0.72330861    -0.58223612
H       -0.45854719     0.79692212    -1.22449113
H       -1.43223486    -0.27057753    -0.33126695
