     6
  Step:   120            Position(A)                                  Velocity(au)
C        -0.04252902     0.07194670    -0.16563654    -0.00000947    -0.00005617     0.00030994
N        -0.04279573     0.00788292     1.47832655    -0.00004269    -0.00005633    -0.00031187
H         0.78545812    -0.57666121    -0.48480201    -0.00074640    -0.00132610     0.00085040
H         0.86525512    -0.28292533     1.88429445     0.00036194     0.00178073     0.00088170
H        -0.75644472    -0.78365635     1.65010027     0.00125321    -0.00090646    -0.00074319
H        -1.00572272     0.00658917    -0.72717196    -0.00016266     0.00190389    -0.00034827
