     6
  Step:   120            Position(A)                                  Velocity(au)
C        -0.01900339     0.13248404    -0.02228132     0.00008467     0.00012862    -0.00011009
N        -0.04343630    -0.10933522     1.34196419     0.00005656    -0.00011216    -0.00001311
H         0.72047845    -0.58521492    -0.58647127    -0.00068190    -0.00072414     0.00078831
H         0.82468151     0.14900407     1.86378056    -0.00072565     0.00089931     0.00002680
H        -0.96185169    -0.08854827     1.85053146    -0.00014253    -0.00032645     0.00009769
H        -0.96621038    -0.20434580    -0.61868912    -0.00024476     0.00017717     0.00058119
