12

C       -0.05040052    -0.02260685    -0.16930801
N       -0.04227688    -0.13855501     1.47027615
H        0.87242143     0.57145232    -0.39609755
H        0.84221772     0.13681530     1.92297190
H       -0.76414316     0.63125997     1.67411803
H       -0.97537343     0.18548704    -0.72293025
C       -0.05053043    -0.02254863    -0.16748259
N       -0.04241378    -0.13816615     1.46875082
H        0.87023802     0.57890301    -0.38942640
H        0.84358441     0.12699462     1.92370476
H       -0.75786253     0.63707235     1.66904257
H       -0.97738702     0.17594716    -0.72581411
