6

C       -0.04378201     0.01450734     0.01747926
N       -0.03830343    -0.05376814     1.29722201
H        0.06447919     0.99020047    -0.45703532
H       -0.25376417    -0.92908981     1.77876149
H        0.18765549     0.74603496     1.89807303
H       -0.15732255    -0.90260260    -0.56269345
