6

C       -0.03794960     0.05934824    -0.02527783
N       -0.05086004    -0.00246688     1.35267612
H        0.69291285    -0.69855009    -0.47302176
H        0.81643681     0.00468107     1.94704004
H       -0.65004065    -0.82204845     1.64161335
H       -0.91327438     0.17320802    -0.71962701
