     6
  Step:   300            Position(A)                                  Velocity(au)
C        -0.04114788     0.00851352     0.01781856    -0.00000711     0.00001788     0.00014647
N        -0.04122584    -0.05530525     1.29820172     0.00000821    -0.00002839    -0.00010014
H         0.88641164     0.04267591    -0.54253872    -0.00020492     0.00103976    -0.00007871
H         0.81400832    -0.03165288     1.85701217    -0.00005380    -0.00104737    -0.00007021
H        -0.88638301    -0.04879414     1.87870961     0.00001421     0.00131350     0.00012271
H        -0.96376643     0.03506903    -0.55374614     0.00021518    -0.00112450    -0.00032757
