6

C       -0.01218498     0.00780633     0.02345614
N       -0.07293803    -0.05237464     1.29530425
H        0.22093516    -0.88140825    -0.57290615
H        0.08532233     0.81180477     1.83138311
H       -0.14106170    -0.95496582     1.77019149
H       -0.21937075     0.98959329    -0.41612945
