     6
  Step:   120            Position(A)                                  Velocity(au)
C        -0.03578850     0.07424079    -0.17728874    -0.00004205     0.00001730     0.00026711
N        -0.03471439     0.00372175     1.49064821     0.00003762     0.00002659    -0.00021848
H         0.91542786    -0.01960826    -0.72853255     0.00000214     0.00105349     0.00004658
H         0.62528423    -0.78457941     1.66787392    -0.00094591    -0.00138609    -0.00092579
H        -0.96469508    -0.23566269     1.91347549     0.00002010     0.00118280    -0.00010640
H        -0.88009568    -0.56629757    -0.56276347     0.00090201    -0.00142581     0.00083879
