12

C       -0.05677121     0.08338141    -0.01839821
N       -0.03366984    -0.04847704     1.34096231
H        0.90443493     0.03550277    -0.64995782
H        0.68980501    -0.66085119     1.80968012
H       -0.87343245     0.25140850     1.88779030
H       -0.78936979    -0.61575845    -0.57071815
C       -0.05747733     0.08352682    -0.01887391
N       -0.03375755    -0.04889441     1.34076317
H        0.90622052     0.04254685    -0.64694325
H        0.68628412    -0.66599665     1.81108537
H       -0.86678181     0.25963768     1.88885979
H       -0.78465229    -0.62181900    -0.56777182
