14

C   -5.95859804   -0.95227825   -0.16748297   -0.00007960    0.00010104    0.00015794
C   -4.66216683   -0.68266453    0.08234397   -0.00012727   -0.00034523   -0.00007795
H   -6.70152102   -0.15515857   -0.32440076    0.00109115    0.00057150   -0.00045846
H   -6.41833026   -1.96856463   -0.02782244   -0.00097125   -0.00030866   -0.00045597
H   -4.01208163   -1.50722200    0.29760684    0.00022495    0.00101933    0.00048945
C   -4.03641359    0.62145724    0.08380673    0.00047021    0.00000459   -0.00008453
C   -2.63921193    0.62538053    0.17734843   -0.00005207    0.00015336   -0.00004313
H   -4.53015295    1.54483382   -0.16613152   -0.00006505   -0.00036825   -0.00021114
H   -2.05554406   -0.29751510    0.41151396   -0.00137981    0.00070993   -0.00009712
C   -1.78794331    1.74849499    0.00875368   -0.00005921   -0.00030961    0.00024102
H   -2.06783591    2.71937056   -0.41633476    0.00047470    0.00065681   -0.00026621
N   -0.48285102    1.64523291    0.17682100   -0.00004950    0.00020100    0.00003122
H    0.09469033    2.50032399    0.07144642    0.00011111    0.00125902   -0.00104302
H   -0.16271480    0.73159521    0.50900258   -0.00060990   -0.00161579   -0.00069557
