6

C       -0.02279438     0.11449740     0.09530550
N       -0.09582783    -0.06637963     1.22625342
H       -0.87655766     0.10547689    -0.44394766
H       -1.01565231     0.08095511     1.82697915
H        1.12636561    -1.22133685     1.79086562
H        1.15646880    -0.07691548    -0.45771673
