     6
  Step:   600            Position(A)                                  Velocity(au)
C        -0.12657827     0.00283860    -0.09254831    -0.00075863    -0.00038517    -0.00085397
N         0.00622412     0.06786937     1.45165363     0.00007152     0.00018622     0.00039012
H         0.80329486    -0.68695254    -0.78335126     0.00524237     0.00129331    -0.00170595
H         1.06801833     0.11521673     1.74662240     0.00006045    -0.00348583     0.00515297
H        -0.68152064    -0.61089172     1.79348203     0.00348107     0.00286737     0.00347832
H        -0.98107517    -0.46397241    -0.93425793    -0.00073793     0.00132704    -0.00217061
