6

C        0.10294730     0.08446742    -0.10572696
N       -0.15563800    -0.16109295     1.36163442
H        1.15624870     0.49843810     0.16564202
H        0.63961636     0.17698323     1.70094186
H       -1.17371595    -0.51750293     1.66189745
H       -0.89887852     0.40463263    -0.29862071
