6

C       -0.04007612    -0.08249427    -0.03966821
N       -0.04188792    -0.04339865     1.35335312
H        0.85434750     0.44293211    -0.56178425
H        0.86422304    -0.05090311     1.84884233
H       -0.96665130     0.03160136     1.85508645
H       -0.90522716     0.49269344    -0.58407692
