6

C       -0.05025055     0.06554521     0.01521658
N       -0.03835928    -0.04795005     1.31596631
H        0.84738844     0.15533989    -0.67156114
H        0.68195738    -0.63774551     1.81196652
H       -0.84164018     0.29935338     1.88260133
H       -0.76880104    -0.60143130    -0.59942685
