     6
  Step:   300            Position(A)                                  Velocity(au)
C        -0.02008554     0.01836424     0.02647175     0.00005886     0.00001742    -0.00010143
N        -0.04305559    -0.05590637     1.29247170    -0.00016564    -0.00007565     0.00005988
H         0.19212100     0.95820520    -0.47648197    -0.00114504     0.00045636     0.00033781
H        -0.29429442    -0.94327593     1.72767010    -0.00054674     0.00020968     0.00043918
H        -0.08299965     0.76246805     1.90843656     0.00208036     0.00033486    -0.00041200
H        -0.19009921    -0.88913553    -0.54369315     0.00121185    -0.00015723     0.00001163
