14

C   -6.02256722   -0.91556423   -0.07864497    0.00004896   -0.00014680    0.00011801
C   -4.69362135   -0.66718104    0.08218280   -0.00035523   -0.00023361   -0.00005421
H   -6.70638223   -0.14394497   -0.51443995    0.00155504   -0.00022212   -0.00008505
H   -6.28434552   -1.99450401   -0.03642117   -0.00045298    0.00119920   -0.00000504
H   -4.09499369   -1.50349195    0.40671173    0.00004549    0.00012691   -0.00013087
C   -3.98731534    0.55493919   -0.04150859   -0.00006690    0.00033219   -0.00024468
C   -2.59299407    0.57716795    0.18089554    0.00013996    0.00020643    0.00014950
H   -4.49713710    1.48967726   -0.24965402    0.00088102    0.00003494    0.00009439
H   -2.11963044   -0.31027639    0.54797729    0.00119351   -0.00082359    0.00018845
C   -1.75406432    1.75579144    0.02686415   -0.00034888   -0.00029266   -0.00009354
H   -2.20825965    2.68876240   -0.29348647    0.00007476   -0.00044491    0.00104197
N   -0.50546879    1.68524228    0.17558718    0.00013488    0.00009275    0.00013622
H    0.02273889    2.54377447    0.07066473    0.00054792    0.00036596   -0.00081806
H   -0.05359812    0.89988492    0.61918750    0.00121723    0.00007676   -0.00069018
