     6
  Step:   120            Position(A)                                  Velocity(au)
C        -0.03361992     0.06182043    -0.00122695    -0.00014110    -0.00006960     0.00034760
N        -0.03562747    -0.00608849     1.33006890     0.00008537    -0.00008102    -0.00032772
H         0.83810282     0.13102821    -0.70228429    -0.00020864     0.00158294     0.00065895
H         0.51619031    -0.83835839     1.66693698    -0.00078780    -0.00070787     0.00022005
H        -0.90587347     0.06962352     1.91474021     0.00057876     0.00188474    -0.00042161
H        -0.76563566    -0.68413132    -0.45582111     0.00091263    -0.00080452    -0.00004532
