     6
  Step:   120            Position(A)                                  Velocity(au)
C        -0.01325278     0.07825372    -0.02072879     0.00008957     0.00005274    -0.00005041
N        -0.05319719    -0.05040728     1.34479421     0.00000780    -0.00008083    -0.00007177
H         0.67584087    -0.64505430    -0.58369234    -0.00091783    -0.00128225     0.00063601
H         0.81928784     0.13449771     1.87790518    -0.00076522     0.00164027     0.00032673
H        -0.84447129    -0.57399834     1.80753284     0.00051974    -0.00106570     0.00020656
H        -0.96641288     0.18278475    -0.65042717    -0.00001237     0.00120244     0.00042867
