6

C       -0.07950773     0.18571603    -0.08714594
N       -0.07227981    -0.21704770     1.36867654
H        0.66140810    -0.50566996    -0.50329616
H       -0.70361348    -0.94608901     1.92174724
H        0.04178078     0.70269550     2.23201141
H        0.73890099     0.88228607    -0.73910442
