    14
  Step:   600            Position(A)                                  Velocity(au)
C        -5.62922426    -0.72920142    -0.68576801     0.00017016     0.00044252     0.00012731
C        -4.64003286    -0.69495613     0.17091776     0.00020431    -0.00063639    -0.00000095
H        -5.99089441     0.30710359    -0.93006620     0.00161048     0.00247001     0.00087382
H        -6.11550204    -1.57754052    -1.21794134    -0.00252488     0.00102851    -0.00087712
H        -4.13509572    -1.57340131     0.46294002    -0.00030629    -0.00156953    -0.00062955
C        -4.03260054     0.47628393     0.71756798     0.00016622    -0.00107377     0.00001759
C        -2.66248587     0.59357131     0.49515134    -0.00004839     0.00128819    -0.00011068
H        -4.44669719     1.37189912     1.25815389     0.00109943    -0.00003145    -0.00111376
H        -2.45202845    -0.44371159    -0.02213060     0.00024659     0.00053166     0.00238876
C        -1.97082952     1.74439501     0.18780156     0.00002033     0.00006019    -0.00026614
H        -2.36939091     2.70030979     0.04305389    -0.00030777     0.00259354    -0.00295299
N        -0.62333378     1.59696841    -0.30428319    -0.00023341    -0.00017194     0.00056379
H        -0.17476163     2.31712662    -0.98793060    -0.00078785    -0.00282358    -0.00146709
H         0.00553823     0.78252891     0.08294345    -0.00189472    -0.00077196    -0.00128174
