12

C       -0.03829746     0.06234630    -0.00185502
N       -0.04027504    -0.03247300     1.34584090
H        0.86555212    -0.15100486    -0.69053454
H        0.83663384    -0.35419013     1.78632114
H       -0.96726792    -0.21463087     1.80421922
H       -0.93182466    -0.24164600    -0.68815022
C       -0.03855288     0.06346703    -0.00408899
N       -0.04023663    -0.03341257     1.34747117
H        0.87031940    -0.15211202    -0.68910342
H        0.83817018    -0.35345664     1.78741887
H       -0.96801938    -0.20972169     1.80454094
H       -0.93486702    -0.24647958    -0.68703551
