12

C       -0.03373906     0.06599541    -0.19602441
N       -0.04835373     0.00480089     1.50278036
H        0.83501127    -0.48943749    -0.58916552
H        0.84561177    -0.38687617     1.88779250
H       -0.81639205    -0.65514878     1.76744678
H       -1.00319024     0.00858273    -0.72136000
C       -0.03368048     0.06619296    -0.19523110
N       -0.04880731     0.00544856     1.50247806
H        0.83167554    -0.49785957    -0.58507241
H        0.84746774    -0.38571814     1.88662159
H       -0.80913117    -0.66244832     1.75838806
H       -1.00336633     0.01179194    -0.72047577
