6

C       -0.03368048     0.06619296    -0.19523110
N       -0.04880731     0.00544856     1.50247806
H        0.83167554    -0.49785957    -0.58507241
H        0.84746774    -0.38571814     1.88662159
H       -0.80913117    -0.66244832     1.75838806
H       -1.00336633     0.01179194    -0.72047577
