12

C       -0.06088751    -0.06199663    -0.03413036
N       -0.03596058    -0.05708374     1.34570279
H        0.90363160     0.06298949    -0.62452073
H        0.79366974     0.32417485     1.87796079
H       -0.92456410    -0.25140444     1.85867384
H       -0.76041456     0.72647525    -0.51375506
C       -0.06147123    -0.06233288    -0.03434249
N       -0.03581353    -0.05635015     1.34520229
H        0.90461337     0.05717231    -0.62299773
H        0.78901382     0.32780713     1.87870260
H       -0.92145480    -0.26064574     1.86040462
H       -0.75493763     0.73171391    -0.50826761
