     6
  Step:   120            Position(A)                                  Velocity(au)
C        -0.03732668     0.11293066    -0.02795282    -0.00002761     0.00021366    -0.00013361
N        -0.04241408    -0.07095305     1.35118607     0.00004332    -0.00017523    -0.00001849
H         0.84471674    -0.36200225    -0.62628966     0.00004941    -0.00039996     0.00054464
H         0.86100104    -0.23544101     1.84038885    -0.00046492     0.00030712     0.00008839
H        -0.97305117    -0.04863791     1.83553944    -0.00015875     0.00077050     0.00056321
H        -0.91140861    -0.38339134    -0.60107739     0.00030128    -0.00078871     0.00065286
