    14
  Step:   600            Position(A)                                  Velocity(au)
C        -5.94219805    -0.80345763    -0.14809575     0.00017385    -0.00013609    -0.00045762
C        -4.66944761    -0.68362590     0.38653771    -0.00011801     0.00002031     0.00011612
H        -6.22465301    -0.35113632    -1.10230969     0.00087373    -0.00032284    -0.00092284
H        -6.78587422    -1.13778559     0.48854434     0.00050180     0.00148486    -0.00052595
H        -4.36059378    -0.86925821     1.43961903     0.00094199    -0.00160726    -0.00108416
C        -3.92160371     0.34446801    -0.28444319     0.00030406    -0.00044460     0.00081122
C        -2.57656920     0.56592437    -0.13044578    -0.00062555     0.00027158    -0.00011466
H        -4.73763989     0.98524636    -0.84838277     0.00007565     0.00184159     0.00086207
H        -1.91640865    -0.38466353    -0.07072077    -0.00012772    -0.00216952    -0.00014430
C        -1.91507897     1.72332075     0.37154583     0.00053311     0.00056621    -0.00002457
H        -2.37329972     2.28362209     1.14182982     0.00042209     0.00334406    -0.00048068
N        -0.48869350     1.79908513     0.11632195    -0.00046534    -0.00036632     0.00006718
H         0.22440432     2.20797094     0.75117589     0.00117536    -0.00055485    -0.00142600
H        -0.30699747     1.24232482    -0.72761183    -0.00058361    -0.00023107    -0.00114999
