     6
  Step:   120            Position(A)                                  Velocity(au)
C        -0.05053043    -0.02254863    -0.16748259    -0.00002040     0.00000970     0.00033816
N        -0.04241378    -0.13816615     1.46875082    -0.00003020     0.00007341    -0.00028372
H         0.87023802     0.57890301    -0.38942640    -0.00040856     0.00135076     0.00118663
H         0.84358441     0.12699462     1.92370476     0.00026861    -0.00177873     0.00015278
H        -0.75786253     0.63707235     1.66904257     0.00117063     0.00102238    -0.00090180
H        -0.97738702     0.17594716    -0.72581411    -0.00036799    -0.00173015    -0.00052442
