6

C       -0.02496884     0.02092551     0.01073195
N       -0.05188132    -0.05400105     1.30545114
H        0.31413340     0.94580402    -0.47026518
H       -0.07616928    -0.99339916     1.71263611
H       -0.13076330     0.77726095     1.89500019
H       -0.30163526    -0.89837742    -0.51421891
