6

C   -0.03242516    0.02142742    0.03729398   -0.00008643   -0.00005534    0.00021568
N   -0.04148457   -0.04555371    1.28411476   -0.00014277    0.00009654   -0.00023119
H    0.89592092   -0.06551206   -0.54064199   -0.00044063    0.00011385    0.00076249
H    0.81044172   -0.14989652    1.85501666    0.00055790   -0.00061278    0.00116692
H   -0.94237212   -0.12005416    1.84084581    0.00243984   -0.00022978   -0.00079985
H   -1.01406414    0.04338410   -0.55208672    0.00045676    0.00004661   -0.00048686
