14

C       -5.28140806    -0.91620484    -0.50802731
C       -4.93248315     0.29409969    -0.24239459
H       -4.71725922    -1.76176341    -0.22663434
H       -6.00376519    -1.19020213    -1.27257612
H       -5.14513133     1.27186096    -0.72470220
C       -3.94734065     0.30304969     0.80693923
C       -2.57624914     0.64887904     0.97347716
H       -4.59710967     0.29512547     1.66130118
H       -2.25020638     0.57706746     1.97187433
C       -1.84535109     0.91176121    -0.21956880
H       -1.70319709     0.04609559    -0.98352008
N       -0.92073831     1.76155367    -0.30183430
H       -0.44362830     1.56569590    -1.11908046
H       -0.88413433     2.56344600     0.24338025
