12

C       -0.04445940    -0.02024236    -0.15153336
N       -0.05237253    -0.13332260     1.45596334
H        0.85181147     0.58818800    -0.45465022
H        0.87376894     0.04446976     1.91200780
H       -0.71042653     0.64417061     1.72877041
H       -0.97051187     0.14728962    -0.72097770
C       -0.04451790    -0.02040143    -0.14942764
N       -0.05285180    -0.13325970     1.45419268
H        0.84840762     0.59590072    -0.44979668
H        0.87645170     0.03871538     1.91304757
H       -0.70282685     0.64992119     1.72289360
H       -0.97003321     0.14060210    -0.72148034
