6

C       -0.04451790    -0.02040143    -0.14942764
N       -0.05285180    -0.13325970     1.45419268
H        0.84840762     0.59590072    -0.44979668
H        0.87645170     0.03871538     1.91304757
H       -0.70282685     0.64992119     1.72289360
H       -0.97003321     0.14060210    -0.72148034
