6

C       -0.03335778     0.01448363     0.01284004
N       -0.04543667    -0.04943105     1.30176693
H        0.90223310    -0.04865555    -0.53707921
H        0.79310843    -0.10918858     1.88282148
H       -0.91346246    -0.12240876     1.83832604
H       -0.96592100     0.12481050    -0.53483885
