     6
  Step:   600            Position(A)                                  Velocity(au)
C        -0.18133797     0.00134773     0.01938156     0.00030043     0.00062838     0.00121394
N         0.08947239    -0.02728413     1.30896034    -0.00015903     0.00069060    -0.00077326
H        -0.83339304     0.92383491    -0.75404776    -0.00008802    -0.00446007    -0.00518775
H         0.01650350    -0.97735153     1.67737265     0.00230074    -0.00482658    -0.00455589
H         0.60036688     0.62749676     2.11018976     0.00076111    -0.00250885     0.00729285
H        -0.07864078    -0.88041361    -0.56253281    -0.00434382    -0.00528908    -0.00126914
