6

C       -0.06080983    -0.07928670    -0.03277462
N       -0.04271668    -0.01934115     1.34667939
H        0.91205192     0.10718348    -0.62794877
H        0.83793367     0.11057541     1.86915547
H       -0.89749406    -0.38875606     1.84605185
H       -0.74722482     0.71477537    -0.51862874
