    14
  Step:   600            Position(A)                                  Velocity(au)
C        -5.26952736    -0.75890338     0.63737091    -0.00009111     0.00014322     0.00029772
C        -4.88373461     0.35793499     0.04622684    -0.00109682    -0.00019231    -0.00067323
H        -4.71745621    -1.65065359     0.34906698     0.00336441     0.00061180    -0.00217665
H        -6.18202024    -0.90788385     1.24882945    -0.00052309    -0.00144272    -0.00092238
H        -5.62984810     1.05819051    -0.22469302    -0.00060104    -0.00031877    -0.00021315
C        -3.73326299     0.07347218    -0.86380738     0.00028091    -0.00016240     0.00080494
C        -2.40057748     0.50704566    -0.72711971    -0.00027928     0.00025554    -0.00052971
H        -3.99880288    -0.67213672    -1.61176528     0.00135254     0.00008801    -0.00133923
H        -1.53806299     0.35347312    -1.42410587    -0.00096317    -0.00233699    -0.00230375
C        -2.10233709     1.07003530     0.51438444    -0.00016023    -0.00009536     0.00050568
H        -2.78373453     0.93982171     1.29318523     0.00182027     0.00083093     0.00087486
N        -1.05193826     1.74944209     0.65421611     0.00071201     0.00021016     0.00019434
H        -0.87466645     2.59916487     1.13764544     0.00267826     0.00014472    -0.00122506
H        -0.50154125     1.71924985    -0.16324621    -0.00097724     0.00011379    -0.00022611
