12

C       -0.06760538    -0.07024630    -0.02843497
N       -0.04106293    -0.03275529     1.34164080
H        0.91310824    -0.01104528    -0.63363773
H        0.82373528     0.24108767     1.87544765
H       -0.87798128    -0.38831537     1.84936810
H       -0.69557152     0.78073299    -0.50420911
C       -0.06818900    -0.07037232    -0.02882042
N       -0.04102836    -0.03242754     1.34138311
H        0.91332149    -0.01700758    -0.63081866
H        0.82008835     0.24656640     1.87552575
H       -0.87357626    -0.39602512     1.85038709
H       -0.69006883     0.78587340    -0.49995112
