6

C   -0.03790572    0.02270564   -0.00403240    0.00008353    0.00007040   -0.00009548
N   -0.05527384   -0.04508591    1.31315561    0.00012479   -0.00005441    0.00004848
H    0.95488660   -0.05286951   -0.49944622   -0.00004223   -0.00002034   -0.00003677
H    0.88371046   -0.18491590    1.83999634   -0.00030090    0.00001715    0.00007987
H   -0.86180987   -0.10729988    1.87758201   -0.00136312    0.00031021    0.00080053
H   -0.96993284    0.03127464   -0.52611306   -0.00102325   -0.00038981   -0.00037948
