12

C       -0.04778657     0.09165669    -0.02278889
N       -0.04745366    -0.09304149     1.34709211
H        0.91025105     0.04388897    -0.64654568
H        0.82147111    -0.36279966     1.84437746
H       -0.85891157     0.32200981     1.87308832
H       -0.85687701    -0.47213129    -0.62698248
C       -0.04828840     0.09232437    -0.02285728
N       -0.04756737    -0.09332623     1.34649685
H        0.91065782     0.04724489    -0.64407278
H        0.81798610    -0.36838662     1.84435636
H       -0.85398016     0.32842710     1.87496185
H       -0.85117016    -0.48031661    -0.62222093
