6

C       -0.03269034    -0.00861226     0.02074322
N       -0.04488066    -0.05625614     1.31110616
H        0.76275193     0.48770960    -0.61646434
H        0.72302870    -0.49222490     1.87023468
H       -0.80870528     0.40299401     1.88397263
H       -0.87680071    -0.18387991    -0.71246354
