6

C       -0.04983838     0.02494694     0.02730039
N       -0.04823792    -0.05387828     1.28911795
H        0.06264414    -0.92423090    -0.49208918
H        0.10737974     0.72618934     1.93111765
H        0.09227545    -0.96861926     1.74551549
H       -0.21101799     0.94831203    -0.53184538
