14

C       -5.83202895    -1.00527677    -0.39336497
C       -5.23181252     0.04581134     0.11523135
H       -5.14875766    -1.69503846    -0.96644721
H       -6.88048935    -1.24053479    -0.31462495
H       -5.88886171     0.74810272     0.54927166
C       -3.75654827     0.11854634     0.13617242
C       -2.79256564     1.04152318     0.16635535
H       -3.21714579    -0.93020066     0.50897990
H       -3.04222987     2.20368396    -0.02384334
C       -1.40310387     0.98414254     0.51849745
H       -1.13930364     0.17060003     1.23290697
N       -0.54378263     1.81663221    -0.10640190
H        0.48341061     1.69798138    -0.07941562
H       -0.98700506     2.32413691    -0.88405952
