6

C       -0.03800138    -0.00437084    -0.19584531
N       -0.05064928    -0.10834775     1.48377163
H        0.91588539     0.42687163    -0.59723891
H        0.86395700    -0.07812909     1.99926013
H       -0.83913755     0.48102070     1.91275992
H       -0.99698162     0.05817973    -0.70804099
