6

C       -0.03268877     0.00823202     0.01936666
N       -0.04429061    -0.04957195     1.29595268
H        0.07431533     0.97309552    -0.47218080
H       -0.26103758    -0.91713341     1.79625787
H        0.10249106     0.78227404     1.87170523
H       -0.12370881    -0.91724523    -0.54352255
