6

C       -0.02695853     0.00302547     0.02902806
N       -0.03254341    -0.05501632     1.28666274
H        0.09149034    -0.84714825    -0.64391426
H       -0.26329858     0.78740454     1.84735306
H       -0.19860628    -0.88746738     1.85927924
H       -0.06905952     1.00591551    -0.39648672
