     6
  Step:   120            Position(A)                                  Velocity(au)
C        -0.04145889    -0.01788828    -0.15077635     0.00001871     0.00000978     0.00039655
N        -0.05245741    -0.13116770     1.45473984    -0.00001625    -0.00004122    -0.00030778
H         0.84390982     0.57561670    -0.48122721    -0.00088503     0.00110657     0.00093751
H         0.86753223     0.03237516     1.92902248    -0.00048786    -0.00092047    -0.00035452
H        -0.70677552     0.64299454     1.73014989     0.00129087     0.00155761    -0.00083849
H        -0.99462248     0.11515323    -0.70479979     0.00008483    -0.00128746    -0.00019274
