     6
  Step:   300            Position(A)                                  Velocity(au)
C        -0.04006977     0.01296482     0.01304158     0.00001115    -0.00000061    -0.00001675
N        -0.03923195    -0.05475732     1.30145422    -0.00000339    -0.00000772     0.00002350
H         0.00769156     0.98646342    -0.46966723     0.00057031    -0.00023929    -0.00021423
H        -0.21720865    -0.92103159     1.81443977     0.00068021    -0.00004821     0.00022363
H         0.12160590     0.76303423     1.89830797    -0.00068834     0.00008733     0.00010940
H        -0.10237207    -0.89178690    -0.59190151    -0.00064787     0.00031477    -0.00024580
