     6
  Step:   300            Position(A)                                  Velocity(au)
C        -0.02679272     0.01717547     0.01240438     0.00005556    -0.00004360     0.00001203
N        -0.04765715    -0.05751224     1.30089170    -0.00003000    -0.00001103    -0.00004371
H         0.92977577     0.17827550    -0.49539229     0.00024416    -0.00131934    -0.00050418
H         0.81019505    -0.22445707     1.83407962     0.00004307     0.00188594     0.00039329
H        -0.95261594     0.01979416     1.78543735    -0.00016015    -0.00178602     0.00029852
H        -1.01876790    -0.04885197    -0.45755052    -0.00037216     0.00189225     0.00027641
