6

C       -0.04017379    -0.03708878    -0.12029340
N       -0.04836218    -0.12802237     1.41815479
H        0.92587943     0.36599766    -0.44872287
H        0.82484275     0.32899583     1.77150561
H       -0.85429418     0.41178375     1.76530940
H       -0.95860012     0.44444629    -0.46979807
