     6
  Step:   300            Position(A)                                  Velocity(au)
C        -0.03116169     0.01540648     0.01413973     0.00005293     0.00001442    -0.00002997
N        -0.05221058    -0.05324464     1.29993579    -0.00013067     0.00001759     0.00002729
H        -0.02647016    -0.91647086    -0.55531507    -0.00016582     0.00002721     0.00004281
H        -0.17894916     0.75409882     1.91590454     0.00048304    -0.00032413     0.00044977
H         0.12379763    -0.94298409     1.77440343     0.00073786     0.00008716    -0.00008941
H        -0.03446738     0.99189289    -0.47580477     0.00013003    -0.00020653    -0.00042522
