6

C       -0.03003500     0.00391869    -0.03262555
N       -0.03964830    -0.03967348     1.34321713
H        0.93936176     0.01182870    -0.63924302
H        0.76128642    -0.15484514     1.88710590
H       -0.97318161    -0.17813340     1.90181524
H       -1.03154614     0.15598449    -0.53469731
