6

C       -0.03336862     0.00965866    -0.03276750
N       -0.04709909    -0.02486274     1.35611841
H        0.88337870    -0.07035928    -0.65778568
H        0.80781783    -0.19280289     1.83854844
H       -0.91009718    -0.27484706     1.94477598
H       -0.94189595     0.09863579    -0.68811843
