6

C       -0.03861747     0.00502063     0.01735705
N       -0.04583706    -0.04790754     1.29833852
H        0.09374603     0.95761474    -0.48834826
H       -0.14616483    -0.91235084     1.84063503
H        0.11296714     0.76965752     1.89059706
H       -0.17635157    -0.87879448    -0.59983002
