6

C   -0.04122018    0.01528280    0.00577464   -0.00001319   -0.00012059   -0.00007799
N   -0.03608131   -0.05058179    1.30694458   -0.00013448    0.00012779    0.00003220
H    0.93832011   -0.03689243   -0.51322748    0.00002570    0.00026022    0.00036672
H    0.81919215   -0.18215307    1.87376271    0.00135958   -0.00054061    0.00070048
H   -0.95543874   -0.02289479    1.86632244    0.00073718   -0.00057656   -0.00025608
H   -1.02243089    0.09295377   -0.56538914   -0.00009646    0.00051808   -0.00032918
