6

C       -0.02233788     0.01774948     0.01346715
N       -0.07018794    -0.05434881     1.30440307
H        0.24545859    -0.88356444    -0.52448449
H        0.13275107     0.78467837     1.85349305
H       -0.05914591    -0.97854476     1.74824232
H       -0.29045916     0.95140798    -0.47214027
