     6
  Step:   120            Position(A)                                  Velocity(au)
C        -0.03692347     0.00014935    -0.00823685    -0.00002629    -0.00002746    -0.00029008
N        -0.03563656    -0.02933584     1.34547845     0.00004021    -0.00001114     0.00015720
H         0.83358724     0.37436868    -0.66810141    -0.00002530     0.00166646     0.00058094
H         0.75181227    -0.55044923     1.81002583    -0.00052389    -0.00132322     0.00028116
H        -0.92432444     0.14454460     1.85106157     0.00029452     0.00146757     0.00007913
H        -0.93881270    -0.23236338    -0.70003495     0.00000922    -0.00132879     0.00033083
