6

C       -0.02966664     0.02580029     0.02468391
N       -0.04697328    -0.06488529     1.29199204
H        0.90451862     0.18374445    -0.49326734
H        0.77774229    -0.31735592     1.84653720
H       -0.92046249     0.11564750     1.79144562
H       -0.96846737    -0.05757899    -0.50078285
