12

C       -0.02929252     0.06255837    -0.12215856
N       -0.03497269     0.00914337     1.44207152
H        0.89923108     0.02788603    -0.73237840
H        0.56190548    -0.84739179     1.61464788
H       -0.96850444    -0.13654545     1.90790370
H       -0.87051842    -0.58623283    -0.48202903
C       -0.02938363     0.06226646    -0.11927358
N       -0.03445015     0.00907233     1.43954445
H        0.89841233     0.03657226    -0.73154519
H        0.55427450    -0.85184337     1.61017448
H       -0.96989044    -0.12879767     1.90964126
H       -0.86685844    -0.59374960    -0.47938692
