6

C       -0.02938363     0.06226646    -0.11927358
N       -0.03445015     0.00907233     1.43954445
H        0.89841233     0.03657226    -0.73154519
H        0.55427450    -0.85184337     1.61017448
H       -0.96989044    -0.12879767     1.90964126
H       -0.86685844    -0.59374960    -0.47938692
