     6
  Step:   300            Position(A)                                  Velocity(au)
C        -0.04011153     0.01482819     0.03021260     0.00000857    -0.00001902     0.00005066
N        -0.04508661    -0.05328110     1.28975291    -0.00001396     0.00001477    -0.00002672
H         0.13990313    -0.87351533    -0.57995568     0.00114311     0.00019488     0.00018236
H         0.04502023     0.76534126     1.89868762     0.00128870     0.00005638    -0.00040928
H        -0.06155571    -0.94576651     1.79470599    -0.00120327    -0.00011236    -0.00029486
H        -0.23181059     0.94787374    -0.50426976    -0.00113669    -0.00011750     0.00028938
