     6
  Step:   120            Position(A)                                  Velocity(au)
C        -0.03488852    -0.00668553    -0.09903183     0.00002111    -0.00000079     0.00069566
N        -0.05132916    -0.08138456     1.40460080    -0.00003036    -0.00002902    -0.00059070
H         0.77437681     0.62819080    -0.54748896    -0.00094167     0.00137121     0.00053025
H         0.77815758    -0.45025111     1.93563614    -0.00087950    -0.00107040    -0.00034974
H        -0.70761288     0.56394686     1.89287222     0.00139345     0.00161248    -0.00052239
H        -0.92882684    -0.20104117    -0.72772477     0.00059808    -0.00150059     0.00026084
