6

C       -0.04795523     0.01567581     0.01637434
N       -0.02783763    -0.05630605     1.29953233
H        0.19599652    -0.89638982    -0.53462961
H       -0.00326246     0.80288234     1.84855661
H       -0.15975061    -0.96205505     1.75715407
H       -0.28765125     0.98144105    -0.43289695
