     6
  Step:   300            Position(A)                                  Velocity(au)
C        -0.04378201     0.01450734     0.01747926    -0.00004726     0.00002248    -0.00005245
N        -0.03830343    -0.05376814     1.29722201     0.00012951     0.00000203     0.00003770
H         0.06447919     0.99020047    -0.45703532    -0.00035701    -0.00002328    -0.00034180
H        -0.25376417    -0.92908981     1.77876149    -0.00096150     0.00015952    -0.00016650
H         0.18765549     0.74603496     1.89807303    -0.00025843    -0.00023012     0.00047531
H        -0.15732255    -0.90260260    -0.56269345     0.00034038    -0.00020229     0.00013413
