     6
  Step:   300            Position(A)                                  Velocity(au)
C        -0.00224523     0.00428720     0.01591339     0.00000843     0.00004964    -0.00007164
N        -0.10097949    -0.05032638     1.30496305     0.00003687    -0.00001320     0.00006851
H         0.28478584     0.95825173    -0.42698723     0.00102179    -0.00040471     0.00005706
H         0.09721702    -0.93993807     1.77327560     0.00078262    -0.00035923    -0.00087948
H         0.09268243     0.79127167     1.85982903    -0.00140700     0.00045446    -0.00000822
H        -0.25762036    -0.83110262    -0.63792536    -0.00101025    -0.00009859     0.00073222
