6

C       -0.01776204    -0.05147283    -0.02842430
N       -0.04846796    -0.04764826     1.34227044
H        0.72086366     0.68375073    -0.51258873
H        0.74634814    -0.49375941     1.86343403
H       -0.81753899     0.40494167     1.86921152
H       -0.97742223     0.01078228    -0.64197197
