     6
  Step:   300            Position(A)                                  Velocity(au)
C        -0.06129754     0.02515290     0.02721756     0.00007856     0.00008295    -0.00009039
N        -0.03150630    -0.05731176     1.29260221    -0.00024316     0.00000132     0.00006762
H         0.11938564    -0.88505534    -0.53332182     0.00005893    -0.00027448     0.00048380
H         0.17133662     0.73889660     1.90568366     0.00130549    -0.00041350     0.00004882
H        -0.09587303    -0.98398497     1.72874332     0.00117620    -0.00018668    -0.00000160
H        -0.23953646     0.95707026    -0.49583531    -0.00009770    -0.00013211    -0.00039361
