6

C       -0.03306227     0.01458515     0.01184128
N       -0.04668442    -0.05999037     1.30183191
H        0.91669516     0.04321556    -0.51924311
H        0.79093461    -0.19465811     1.87109209
H       -0.90450961     0.07284820     1.84740998
H       -0.97332484     0.06864475    -0.53903319
