     6
  Step:   300            Position(A)                                  Velocity(au)
C        -0.04198858     0.01657728     0.02093605    -0.00000061    -0.00000837     0.00019662
N        -0.03901276    -0.05676266     1.29545644    -0.00000805     0.00000261    -0.00013925
H         0.04577799    -0.87406782    -0.59294216     0.00116242     0.00026622    -0.00016166
H        -0.09568317     0.76302395     1.90739087     0.00130882     0.00005947     0.00007604
H         0.00437698    -0.93567712     1.81790525    -0.00122357     0.00001932    -0.00007259
H        -0.12491752     0.96821085    -0.49190861    -0.00112859    -0.00028157    -0.00024971
