14

C   -5.98395202   -0.71866565   -0.24145708   -0.00003476   -0.00008836    0.00001757
C   -4.76234217   -0.75937371    0.21834131   -0.00010886   -0.00017746   -0.00000438
H   -6.44816796    0.14554176   -0.71688044   -0.00002325    0.00128120   -0.00058055
H   -6.62633791   -1.54003796   -0.01330427   -0.00043467    0.00062994    0.00052603
H   -4.35493859   -1.65861888    0.69367508   -0.00013433   -0.00008923   -0.00003079
C   -3.87277468    0.36448174   -0.01778591    0.00021397   -0.00009866    0.00003624
C   -2.51743384    0.53602091    0.33169236   -0.00002586    0.00014802    0.00014686
H   -4.42779189    1.18480244   -0.56094591    0.00038544    0.00050610   -0.00101455
H   -1.96490523   -0.34493338    0.84716388    0.00030796   -0.00068010   -0.00004625
C   -1.85059311    1.68147728   -0.06394796    0.00018882    0.00024840   -0.00017085
H   -2.37597471    2.57915437   -0.49306103   -0.00071038   -0.00149525    0.00046314
N   -0.54050483    1.82259215    0.14956223   -0.00011209    0.00008705    0.00011299
H   -0.05163386    2.68171368   -0.22126861   -0.00045268   -0.00133331    0.00065106
H    0.03874532    1.11125900    0.69695622   -0.00016050   -0.00040970   -0.00184153
