12

C       -0.04156684    -0.01795000    -0.15294738
N       -0.05236699    -0.13091948     1.45641446
H        0.84886645     0.56951189    -0.48650278
H        0.87022933     0.03737630     1.93105396
H       -0.71395872     0.63427911     1.73491428
H       -0.99506312     0.12225843    -0.70372114
C       -0.04145889    -0.01788828    -0.15077635
N       -0.05245741    -0.13116770     1.45473984
H        0.84390982     0.57561670    -0.48122721
H        0.86753223     0.03237516     1.92902248
H       -0.70677552     0.64299454     1.73014989
H       -0.99462248     0.11515323    -0.70479979
