     6
  Step:     0            Position(A)                                  Velocity(au)
C        -0.03804377     0.02654308     0.03343258    -0.00011828    -0.00001617    -0.00017244
N        -0.04238216    -0.06600361     1.28386690    -0.00015954     0.00003217     0.00017932
H         0.90453380    -0.03740148    -0.48818141     0.00025963     0.00000261    -0.00023405
H         0.79874727    -0.00566951     1.82050564     0.00166671    -0.00008242     0.00042690
H        -0.90197061    -0.03015932     1.88701685     0.00064448    -0.00028129    -0.00117568
H        -0.97195890     0.00437307    -0.56675033     0.00105563     0.00010674     0.00054567
     6
  Step:     1            Position(A)                                  Velocity(au)
C        -0.03871228     0.02648260     0.03227930    -0.00012489    -0.00000610    -0.00024738
N        -0.04329539    -0.06585337     1.28504860    -0.00017175     0.00002296     0.00025160
H         0.90627248    -0.03744475    -0.48981569     0.00037247    -0.00001807    -0.00036052
H         0.80827150    -0.00604160     1.82315535     0.00179231    -0.00005537     0.00052783
H        -0.89830633    -0.03168098     1.88047909     0.00068188    -0.00027440    -0.00120253
H        -0.96622956     0.00494299    -0.56390705     0.00102819     0.00010147     0.00048663
     6
  Step:     2            Position(A)                                  Velocity(au)
C        -0.03941055     0.02647638     0.03072533    -0.00012873     0.00000361    -0.00031771
N        -0.04426170    -0.06575239     1.28662032    -0.00017839     0.00001415     0.00032063
H         0.90861004    -0.03759924    -0.49212684     0.00047622    -0.00003788    -0.00047958
H         0.81836183    -0.00627547     1.82628210     0.00186883    -0.00003177     0.00059987
H        -0.89450831    -0.03316226     1.87385669     0.00069020    -0.00026588    -0.00120269
H        -0.96070661     0.00548353    -0.56142474     0.00097756     0.00009578     0.00041255
     6
  Step:     3            Position(A)                                  Velocity(au)
C        -0.04012273     0.02652220     0.02879816    -0.00012947     0.00001283    -0.00038200
N        -0.04524995    -0.06569828     1.28856176    -0.00017912     0.00000584     0.00038485
H         0.91149042    -0.03785978    -0.49507042     0.00056779    -0.00005654    -0.00058887
H         0.82874812    -0.00638969     1.82972807     0.00189469    -0.00001154     0.00064288
H        -0.89074383    -0.03459422     1.86730124     0.00066631    -0.00025555    -0.00117353
H        -0.95551848     0.00599241    -0.55938675     0.00090304     0.00008963     0.00032340
     6
  Step:     4            Position(A)                                  Velocity(au)
C        -0.04083146     0.02661719     0.02653280    -0.00012693     0.00002142    -0.00043892
N        -0.04622755    -0.06568832     1.29084409    -0.00017385    -0.00000191     0.00044271
H         0.91484162    -0.03821982    -0.49858975     0.00064445    -0.00007380    -0.00068621
H         0.83915619    -0.00640217     1.83333777     0.00187051     0.00000543     0.00065797
H        -0.88719554    -0.03596693     1.86097711     0.00060833    -0.00024332    -0.00111364
H        -0.95079573     0.00646720    -0.55787538     0.00080512     0.00008303     0.00022004
     6
  Step:     5            Position(A)                                  Velocity(au)
C        -0.04151867     0.02675779     0.02397115    -0.00012112     0.00002927    -0.00048735
N        -0.04716183    -0.06571934     1.29343037    -0.00016275    -0.00000903     0.00049284
H         0.91857769    -0.03867136    -0.50261691     0.00070403    -0.00008939    -0.00076977
H         0.84931879    -0.00632994     1.83696402     0.00179897     0.00001934     0.00064732
H        -0.88405376    -0.03727010     1.85505415     0.00051618    -0.00022924    -0.00102324
H        -0.94666426     0.00690548    -0.55696694     0.00068564     0.00007601     0.00010420
     6
  Step:     6            Position(A)                                  Velocity(au)
C        -0.04216650     0.02693978     0.02116077    -0.00011218     0.00003625    -0.00052650
N        -0.04802151    -0.06578782     1.29627666    -0.00014628    -0.00001543     0.00053424
H         0.92260207    -0.03920516    -0.50707486     0.00074515    -0.00010313    -0.00083829
H         0.85898605    -0.00618898     1.84047309     0.00168468     0.00003041     0.00061402
H        -0.88150569    -0.03849378     1.84969805     0.00039190    -0.00021348    -0.00090442
H        -0.94323797     0.00730509    -0.55672681     0.00054778     0.00006867    -0.00002150
     6
  Step:     7            Position(A)                                  Velocity(au)
C        -0.04275831     0.02715841     0.01815305    -0.00010048     0.00004231    -0.00055601
N        -0.04877828    -0.06588990     1.29933395    -0.00012517    -0.00002109     0.00056630
H         0.92681190    -0.03981097    -0.51188039     0.00076729    -0.00011489    -0.00089116
H         0.86793526    -0.00599390     1.84374921     0.00153377     0.00003893     0.00056183
H        -0.87972310    -0.03962911     1.84505988     0.00023970    -0.00019634    -0.00076109
H        -0.94061111     0.00766436    -0.55720454     0.00039593     0.00006112    -0.00015373
     6
  Step:     8            Position(A)                                  Velocity(au)
C        -0.04327968     0.02740857     0.01500089    -0.00008651     0.00004741    -0.00057596
N        -0.04940820    -0.06602145     1.30255055    -0.00010035    -0.00002596     0.00058894
H         0.93110266    -0.04047799    -0.51694772     0.00077084    -0.00012464    -0.00092847
H         0.87597821    -0.00575774     1.84669748     0.00135337     0.00004521     0.00049488
H        -0.87885017    -0.04066894     1.84126611     0.00006578    -0.00017821    -0.00059874
H        -0.93885163     0.00798227    -0.55842999     0.00023541     0.00005351    -0.00028871
     6
  Step:     9            Position(A)                                  Velocity(au)
C        -0.04371916     0.02768496     0.01175630    -0.00007089     0.00005154    -0.00058686
N        -0.04989280    -0.06617826     1.30587488    -0.00007292    -0.00003007     0.00060254
H         0.93537302    -0.04119525    -0.52219228     0.00075694    -0.00013243    -0.00095101
H         0.88296615    -0.00549183     1.84924550     0.00115110     0.00004960     0.00041737
H        -0.87899247    -0.04160834     1.83841006    -0.00012207    -0.00015954    -0.00042399
H        -0.93799660     0.00825864    -0.56041102     0.00007199     0.00004598    -0.00042250
     6
  Step:    10            Position(A)                                  Velocity(au)
C        -0.04406880     0.02798235     0.00846800    -0.00005425     0.00005476    -0.00058963
N        -0.05021989    -0.06635615     1.30925799    -0.00004402    -0.00003343     0.00060794
H         0.93952880    -0.04195218    -0.52753419     0.00072738    -0.00013840    -0.00096011
H         0.88879213    -0.00520556     1.85134364     0.00093458     0.00005249     0.00033338
H        -0.88020906    -0.04244489     1.83654627    -0.00031526    -0.00014080    -0.00024399
H        -0.93805022     0.00849414    -0.56313317    -0.00008858     0.00003871    -0.00055139
     6
  Step:    11            Position(A)                                  Velocity(au)
C        -0.04432428     0.02829575     0.00517954    -0.00003725     0.00005713    -0.00058542
N        -0.05038376    -0.06655110     1.31265583    -0.00001477    -0.00003610     0.00060626
H         0.94348625    -0.04273901    -0.53290134     0.00068438    -0.00014275    -0.00095757
H         0.89339053    -0.00490632     1.85296404     0.00071086     0.00005425     0.00024657
H        -0.88250888    -0.04317880     1.83568857    -0.00050510    -0.00012245    -0.00006574
H        -0.93898467     0.00869037    -0.56656125    -0.00024110     0.00003182    -0.00067221
     6
  Step:    12            Position(A)                                  Velocity(au)
C        -0.04448491     0.02862060     0.00192792    -0.00002046     0.00005877    -0.00057557
N        -0.05038486    -0.06675944     1.31603087     0.00001382    -0.00003816     0.00059884
H         0.94717441    -0.04354691    -0.53823177     0.00063036    -0.00014573    -0.00094547
H         0.89673358    -0.00459950     1.85409825     0.00048616     0.00005525     0.00016014
H        -0.88585181    -0.04381283     1.83581185    -0.00068363    -0.00010488     0.00010449
H        -0.94074368     0.00884960    -0.57064285    -0.00038120     0.00002544    -0.00078251
     6
  Step:    13            Position(A)                                  Velocity(au)
C        -0.04455305     0.02895295    -0.00125731    -0.00000435     0.00005978    -0.00056143
N        -0.05022920    -0.06697790     1.31935302     0.00004089    -0.00003971     0.00058708
H         0.95053585    -0.04436881    -0.54347503     0.00056769    -0.00014767    -0.00092596
H         0.89882755    -0.00428842     1.85475494     0.00026569     0.00005586     0.00007672
H        -0.89015428    -0.04435170     1.83685716    -0.00084418    -0.00008838     0.00026160
H        -0.94324788     0.00897489    -0.57531247    -0.00050564     0.00001968    -0.00088065
     6
  Step:    14            Position(A)                                  Velocity(au)
C        -0.04453360     0.02928948    -0.00435405     0.00001070     0.00006029    -0.00054427
N        -0.04992730    -0.06720375     1.32259982     0.00006579    -0.00004083     0.00057224
H         0.95352648    -0.04519926    -0.54859253     0.00049857    -0.00014887    -0.00090107
H         0.89970647    -0.00397442     1.85495674     0.00005351     0.00005644    -0.00000158
H        -0.89529755    -0.04480176     1.83873899    -0.00098164    -0.00007317     0.00040186
H        -0.94640136     0.00906982    -0.58049662    -0.00061225     0.00001461    -0.00096577
     6
  Step:    15            Position(A)                                  Velocity(au)
C        -0.04443332     0.02962754    -0.00734703     0.00002445     0.00006041    -0.00052515
N        -0.04949305    -0.06743478     1.32575569     0.00008804    -0.00004163     0.00055541
H         0.95611420    -0.04603449    -0.55355687     0.00042479    -0.00014960    -0.00087257
H         0.89942622    -0.00365694     1.85473728    -0.00014730     0.00005730    -0.00007314
H        -0.90113758    -0.04517040     1.84135346    -0.00109249    -0.00005936     0.00052287
H        -0.95009820     0.00913831    -0.58611821    -0.00069989     0.00001025    -0.00103762
     6
  Step:    16            Position(A)                                  Velocity(au)
C        -0.04426016     0.02996507    -0.01022670     0.00003675     0.00006024    -0.00050489
N        -0.04894272    -0.06766927     1.32881081     0.00010732    -0.00004218     0.00053738
H         0.95827681    -0.04687221    -0.55835019     0.00034779    -0.00015009    -0.00084184
H         0.89805922    -0.00333369     1.85413882    -0.00033435     0.00005874    -0.00013666
H        -0.90751454    -0.04546559     1.84458608    -0.00117463    -0.00004699     0.00062339
H        -0.95422800     0.00918445    -0.59210003    -0.00076814     0.00000663    -0.00109634
     6
  Step:    17            Position(A)                                  Velocity(au)
C        -0.04402270     0.03030055    -0.01298781     0.00004753     0.00005984    -0.00048402
N        -0.04829404    -0.06790598     1.33175952     0.00012340    -0.00004255     0.00051867
H         0.95999987    -0.04771140    -0.56296220     0.00026866    -0.00015053    -0.00080990
H         0.89569069    -0.00300070     1.85321051    -0.00050564     0.00006104    -0.00019099
H        -0.91426092    -0.04569537     1.84831819    -0.00122708    -0.00003602     0.00070306
H        -0.95868015     0.00921236    -0.59836695    -0.00081713     0.00000373    -0.00114226
     6
  Step:    18            Position(A)                                  Velocity(au)
C        -0.04372978     0.03063279    -0.01562795     0.00005675     0.00005925    -0.00046286
N        -0.04756565    -0.06814404     1.33459875     0.00013614    -0.00004279     0.00049951
H         0.96127480    -0.04855202    -0.56738805     0.00018821    -0.00015104    -0.00077741
H         0.89241661    -0.00265248     1.85200756    -0.00065926     0.00006448    -0.00023504
H        -0.92120778    -0.04586756     1.85243172    -0.00124972    -0.00002640     0.00076213
H        -0.96334657     0.00922610    -0.60484678    -0.00084727     0.00000155    -0.00117571
     6
  Step:    19            Position(A)                                  Velocity(au)
C        -0.04339025     0.03096091    -0.01814633     0.00006441     0.00005852    -0.00044154
N        -0.04677678    -0.06838289     1.33732658     0.00014542    -0.00004296     0.00047995
H         0.96209750    -0.04939474    -0.57162646     0.00010715    -0.00015171    -0.00074479
H         0.88834322    -0.00228204     1.85059096    -0.00079321     0.00006931    -0.00026772
H        -0.92818905    -0.04598956     1.85681218    -0.00124313    -0.00001802     0.00080128
H        -0.96812303     0.00922964    -0.61147029    -0.00085918     0.00000006    -0.00119703
