12

C       -0.03525313     0.05892429    -0.21849269
N       -0.03904259     0.00085386     1.51996102
H        0.92773752    -0.16479389    -0.67351040
H        0.76310718    -0.56918001     1.83715186
H       -0.93724905    -0.42785715     1.91201546
H       -1.00391661    -0.22197439    -0.70195907
C       -0.03515601     0.05905369    -0.21857526
N       -0.03869817     0.00243437     1.52049899
H        0.92757723    -0.16561475    -0.67145350
H        0.75729027    -0.57892629     1.82970380
H       -0.93707585    -0.43553368     1.90901714
H       -1.00405617    -0.22723618    -0.70006148
