     6
  Step:   300            Position(A)                                  Velocity(au)
C        -0.03926425     0.01126194     0.02878284    -0.00000228    -0.00000104     0.00005011
N        -0.04430781    -0.05068059     1.28614269    -0.00001378     0.00000139    -0.00004150
H        -0.02108019    -0.90613589    -0.56075050    -0.00188491     0.00041974    -0.00035453
H        -0.11751828     0.76480800     1.91331094    -0.00195063    -0.00051770     0.00033819
H         0.06834106    -0.92994333     1.81294536     0.00213951     0.00047807     0.00039835
H        -0.05907458     0.97156996    -0.48912491     0.00191468    -0.00038702    -0.00040243
