    14
  Step:   600            Position(A)                                  Velocity(au)
C        -5.09079209    -0.55772689     0.95373171     0.00042193     0.00001275     0.00048615
C        -5.09016062    -0.22103564    -0.39262688    -0.00035936    -0.00024359    -0.00097880
H        -4.33740920     0.00855421     1.54152994     0.00070210     0.00160745     0.00052752
H        -5.75111008    -1.34631442     1.30076090     0.00068284    -0.00067086     0.00044581
H        -5.75010598    -0.53078688    -1.19396407    -0.00107267    -0.00099191     0.00017316
C        -3.91712734     0.49851417    -1.08678378    -0.00021780    -0.00018158    -0.00028204
C        -2.66424093     0.90487454    -0.52546525     0.00019881     0.00028799     0.00093179
H        -4.01680554     0.48017997    -2.20842302    -0.00100495     0.00300951    -0.00230963
H        -2.16315594     1.67387761    -1.47220774    -0.00171054    -0.00200119    -0.00109829
C        -2.06726521     1.05894501     0.76713781     0.00037113     0.00046162     0.00008276
H        -2.70393893     0.64577025     1.63794842    -0.00090924     0.00081770    -0.00066091
N        -0.75065976     1.34283643     0.57321138    -0.00026851    -0.00023778     0.00013929
H        -0.04100429     1.68958325     1.32111359     0.00176254    -0.00072043    -0.00096160
H        -0.40434352     1.29797914    -0.49499872     0.00033944    -0.00176394    -0.00091000
