12

C       -0.03802952     0.06001895    -0.13950180
N       -0.03409966    -0.02675638     1.44525346
H        0.90571538     0.18168053    -0.71842995
H        0.64089284    -0.74969752     1.81176743
H       -0.93473085     0.05207127     1.97029091
H       -0.89778000    -0.49720621    -0.59299736
C       -0.03822595     0.05973672    -0.13642760
N       -0.03392588    -0.02601046     1.44291248
H        0.90361470     0.18915500    -0.71657049
H        0.63323924    -0.76025188     1.80645517
H       -0.92967165     0.05706508     1.96732882
H       -0.89315918    -0.50612259    -0.59068361
