     6
  Step:   120            Position(A)                                  Velocity(au)
C        -0.04037145    -0.02201044    -0.11252514     0.00006328     0.00000032     0.00056484
N        -0.05665211    -0.12576216     1.41967238    -0.00003554     0.00006611    -0.00048567
H         0.75019402     0.70983130    -0.40557833    -0.00113071     0.00112259     0.00056084
H         0.85337454    -0.14307329     1.94445075    -0.00064606    -0.00162630    -0.00033850
H        -0.58359306     0.74160020     1.70265547     0.00123186     0.00118615    -0.00035526
H        -0.96457646     0.03177789    -0.73690211     0.00028477    -0.00160489     0.00015131
