6

C       -0.03772072     0.09606833     0.00397571
N       -0.04086982    -0.04635573     1.33079721
H        0.83502099    -0.26304279    -0.65475434
H        0.81223260    -0.40801024     1.79882801
H       -0.95721676    -0.05684338     1.82471712
H       -0.88555427    -0.44246459    -0.61733286
