12

C       -0.03880159    -0.01611375    -0.21085615
N       -0.04139104    -0.13569885     1.50514268
H        0.93962627     0.07392088    -0.69070792
H        0.70790081     0.55927288     1.81547963
H       -0.92249631     0.18054308     1.94155863
H       -0.90045016     0.59420130    -0.57769086
C       -0.03890706    -0.01608601    -0.20992282
N       -0.04114173    -0.13641656     1.50474651
H        0.94000129     0.06908959    -0.69164464
H        0.70228134     0.56888676     1.80899115
H       -0.92270098     0.17898058     1.93909025
H       -0.89720882     0.60062408    -0.57341368
