     6
  Step:   300            Position(A)                                  Velocity(au)
C        -0.02496884     0.02092551     0.01073195    -0.00002668     0.00000038     0.00008352
N        -0.05188132    -0.05400105     1.30545114     0.00009988     0.00003181    -0.00009551
H         0.31413340     0.94580402    -0.47026518    -0.00085487     0.00021171    -0.00019549
H        -0.07616928    -0.99339916     1.71263611    -0.00157036     0.00003606     0.00004334
H        -0.13076330     0.77726095     1.89500019     0.00044569    -0.00035251     0.00036863
H        -0.30163526    -0.89837742    -0.51421891     0.00090948    -0.00034182     0.00011558
