     6
  Step:   120            Position(A)                                  Velocity(au)
C        -0.01730070     0.10356300    -0.02606116     0.00009633     0.00008454    -0.00008373
N        -0.04824677    -0.06069141     1.34591112    -0.00001700    -0.00013882    -0.00004994
H         0.70955410    -0.62924111    -0.56130865    -0.00084278    -0.00097403     0.00077829
H         0.84292174     0.05918079     1.89117591    -0.00051640     0.00158193     0.00040317
H        -0.90541729    -0.42772538     1.79996803     0.00064920    -0.00053148     0.00004023
H        -0.98341289    -0.06267210    -0.63052598    -0.00020156     0.00084527     0.00047004
