6

C       -0.03786612     0.00596551     0.02294439
N       -0.04026499    -0.04849188     1.29436042
H        0.04242207    -0.88199440    -0.60087452
H       -0.06624676     0.77760483     1.89491807
H       -0.06968839    -0.92260523     1.83389945
H       -0.10866515     0.96000124    -0.49620417
