    14
  Step:   600            Position(A)                                  Velocity(au)
C        -5.13099503     0.06919874     0.74793871    -0.00048928    -0.00033457     0.00005085
C        -4.15161691    -0.49292723     0.01525156    -0.00007903     0.00084195     0.00005597
H        -5.80244985     0.74589150     0.17084845    -0.00021972    -0.00196323     0.00105562
H        -5.40238709    -0.36978388     1.69842124     0.00119092     0.00091899     0.00056735
H        -3.59756475    -1.42597611     0.43254130     0.00184302     0.00183446    -0.00162505
C        -3.88045663     0.30875438    -1.21157142     0.00015509    -0.00053180     0.00034289
C        -2.90085540     1.04717279    -0.72225643     0.00062047     0.00004131     0.00020498
H        -4.47246229     0.50352434    -2.17209668     0.00032446     0.00172939    -0.00108998
H        -2.72103975     1.93605890    -1.28063046     0.00069804     0.00112033    -0.00057266
C        -2.35862941     1.13279688     0.67995953    -0.00027753    -0.00007394    -0.00028897
H        -2.83928978     1.34287163     1.62406047    -0.00082828    -0.00181187    -0.00008286
N        -1.05202473     0.94500232     0.64611642    -0.00007732    -0.00011596    -0.00012566
H        -0.57104151     1.09586277     1.52018123    -0.00003888     0.00090422    -0.00124310
H        -0.42397919     1.07445121    -0.11215752    -0.00105764    -0.00044093     0.00037869
