6

C       -0.03741346     0.01221877     0.03128858
N       -0.03796619    -0.05153851     1.28347217
H        0.05020031     0.96753909    -0.48981424
H       -0.32570676    -0.89667539     1.80971154
H        0.13312225     0.73599733     1.92061558
H       -0.09711663    -0.90604248    -0.55687367
