12

C       -0.03862684    -0.04071414    -0.11992487
N       -0.04995154    -0.12389544     1.41508244
H        0.92993124     0.40421521    -0.43232111
H        0.84847361     0.28827103     1.77724322
H       -0.86336282     0.37303447     1.76877784
H       -0.97354918     0.47154223    -0.45709044
C       -0.03879857    -0.04100804    -0.12036892
N       -0.04965186    -0.12383466     1.41476971
H        0.92904583     0.40561396    -0.42701850
H        0.84542674     0.28764062     1.77495328
H       -0.86490092     0.37592305     1.76780960
H       -0.97019698     0.47054283    -0.44949756
