6

C       -0.03879857    -0.04100804    -0.12036892
N       -0.04965186    -0.12383466     1.41476971
H        0.92904583     0.40561396    -0.42701850
H        0.84542674     0.28764062     1.77495328
H       -0.86490092     0.37592305     1.76780960
H       -0.97019698     0.47054283    -0.44949756
