     6
  Step:   120            Position(A)                                  Velocity(au)
C        -0.03980778     0.03144262    -0.08357994     0.00005384     0.00003429     0.00060972
N        -0.05099841    -0.00516135     1.40423836    -0.00003879    -0.00001156    -0.00054212
H         0.77000893    -0.54616948    -0.60562180    -0.00121104    -0.00143953     0.00070491
H         0.83632107     0.00658859     1.96520069    -0.00054421     0.00143711    -0.00035287
H        -0.71849381    -0.75100802     1.72363064     0.00108510    -0.00132732    -0.00049419
H        -0.91771829     0.31787130    -0.70902236     0.00056760     0.00108172     0.00041025
