6

C       -0.11178968     0.08731106    -0.11083674
N       -0.00566349    -0.11905820     1.39187959
H       -1.05430073     0.00756655    -0.51612633
H       -0.73022416    -0.24182784     2.28260846
H        1.00949692     0.31547783     1.53322668
H        0.97227099    -0.13697533    -0.42888607
