     6
  Step:   300            Position(A)                                  Velocity(au)
C        -0.06982745     0.01905609     0.01527065     0.00004723    -0.00011780     0.00006121
N         0.00361200    -0.05774519     1.30512716    -0.00019832     0.00002066    -0.00008590
H         0.21066465     0.95225524    -0.47064966     0.00016468     0.00041050     0.00101656
H        -0.06090898    -0.97778174     1.75672931     0.00122688     0.00012977     0.00009463
H        -0.21544762     0.79628501     1.82638118     0.00096932     0.00043186    -0.00025242
H        -0.36537619    -0.86518333    -0.53888296    -0.00016774     0.00014451    -0.00039449
