6

C       -0.05528573     0.00601420     0.02873016
N       -0.04541439    -0.05609834     1.28654064
H        0.11793025     0.99730816    -0.38528359
H        0.04070078    -0.90600206     1.84767296
H        0.19597120     0.78519375     1.83608808
H       -0.27764909    -0.83839520    -0.62700912
