     6
  Step:   120            Position(A)                                  Velocity(au)
C        -0.03515601     0.05905369    -0.21857526     0.00001408     0.00002435    -0.00001298
N        -0.03869817     0.00243437     1.52049899     0.00005645     0.00028051     0.00009619
H         0.92757723    -0.16561475    -0.67145350    -0.00000301    -0.00015056     0.00035660
H         0.75729027    -0.57892629     1.82970380    -0.00102408    -0.00175592    -0.00133227
H        -0.93707585    -0.43553368     1.90901714     0.00008164    -0.00133330    -0.00056286
H        -1.00405617    -0.22723618    -0.70006148    -0.00000680    -0.00094835     0.00035657
