    14
  Step:   600            Position(A)                                  Velocity(au)
C        -4.69246940    -1.17719043    -0.60001263    -0.00010909     0.00062039    -0.00015557
C        -5.13097522    -0.04227599    -0.14905697    -0.00033748    -0.00023160     0.00060858
H        -3.79239862    -1.69219605    -0.10789857     0.00213092    -0.00053223    -0.00286501
H        -5.13344095    -1.71088310    -1.34580523    -0.00023224    -0.00092511     0.00090504
H        -5.96028178     0.51133754    -0.64879955    -0.00225309    -0.00317714    -0.00102526
C        -4.42828599     1.01414030     0.65309229    -0.00088085    -0.00025783     0.00012421
C        -3.03788768     1.29277759     0.67027267     0.00049315    -0.00005547    -0.00046819
H        -4.96395531     1.43081384     1.52113726     0.00255719     0.00168939    -0.00003307
H        -2.86893457     2.28522403     0.94083132     0.00019424    -0.00070282    -0.00333894
C        -1.76760436     0.73666654     0.09222064     0.00054379     0.00047628    -0.00008100
H        -1.80536262    -0.29457248     0.08887038    -0.00219433    -0.00148515    -0.00027117
N        -0.59086379     1.24218503    -0.19819692    -0.00009111    -0.00037247     0.00032429
H         0.36157773     0.80423466    -0.32415367     0.00169964     0.00220434     0.00087409
H        -0.51340625     2.30846989    -0.29934572     0.00282503     0.00152957     0.00091382
