6

C   -0.03732411    0.02108469    0.02949907   -0.00002524    0.00008144    0.00027175
N   -0.04074750   -0.05786652    1.29234313    0.00015736   -0.00008537   -0.00023720
H    0.88261892   -0.05049294   -0.49051678    0.00021910   -0.00016442   -0.00033785
H    0.82426464   -0.09119356    1.78809076   -0.00152111    0.00028152   -0.00028574
H   -0.94218526   -0.03221891    1.84924805   -0.00061745    0.00053349    0.00032681
H   -0.96663838    0.05701449   -0.56514818    0.00003357   -0.00043464    0.00035474
