    14
  Step:   600            Position(A)                                  Velocity(au)
C        -4.54362154    -0.96230811    -0.65257828    -0.00083557    -0.00047492    -0.00113170
C        -5.07087123     0.10996488    -0.01358378     0.00058707    -0.00069477     0.00045969
H        -3.50491681    -1.23842190    -0.63897460    -0.00141392     0.00064974    -0.00193506
H        -4.97352952    -1.31850806    -1.56867764     0.00134121    -0.00091470     0.00001097
H        -6.09494129     0.29167501    -0.20304023     0.00015185    -0.00116267    -0.00024102
C        -4.25271610     0.80646779     0.94074716     0.00028174     0.00055983     0.00024030
C        -2.89942878     0.93098125     0.95335421    -0.00016944     0.00091427     0.00032118
H        -4.68943450     1.52629488     1.68435537    -0.00046271    -0.00207004     0.00416675
H        -2.46053341     1.46668205     1.78712667    -0.00247768     0.00308616     0.00210697
C        -2.09032986     0.93229484    -0.30383195     0.00037666     0.00060819    -0.00030753
H        -2.48948152     1.02863836    -1.33285971    -0.00094965    -0.00006617     0.00033312
N        -0.76065664     1.19017975    -0.35597128    -0.00016275    -0.00067866    -0.00000211
H        -0.25899731     1.30810918    -1.21699211     0.00175366    -0.00257651     0.00071265
H        -0.23001024     1.38081028     0.43819476     0.00145334     0.00161054    -0.00014330
