6

C       -0.03610646     0.01642826     0.01381949
N       -0.04442812    -0.05701790     1.30077375
H        0.90296977     0.08247481    -0.52880861
H        0.80144377    -0.18976331     1.86251500
H       -0.89996230     0.01678831     1.86094095
H       -0.96975367     0.01731631    -0.54331221
