     6
  Step:   300            Position(A)                                  Velocity(au)
C        -0.06513955     0.01352839     0.01423516     0.00000837    -0.00005504    -0.00009478
N         0.00259257    -0.04991291     1.30669006    -0.00007314     0.00000753     0.00006540
H         0.22831800     0.90961810    -0.52937359     0.00071569     0.00020934     0.00085450
H        -0.13878371    -0.95793723     1.76721110     0.00123214    -0.00031030    -0.00010558
H        -0.19888716     0.79530625     1.84887607    -0.00027139     0.00044049    -0.00066272
H        -0.36339701    -0.88436891    -0.52251395    -0.00075979     0.00021162     0.00013443
