     6
  Step:   600            Position(A)                                  Velocity(au)
C        -0.07358911     0.10397949     0.01506020    -0.00059681    -0.00017001    -0.00166536
N        -0.01215901    -0.15107585     1.23149951     0.00043379    -0.00033120     0.00153567
H        -0.24694360    -0.69437995    -0.60834958     0.00315279     0.00027086    -0.00595572
H        -0.63385306    -0.89778042     1.74976976    -0.00489733     0.00036065     0.00073420
H         0.28310911     0.56080895     2.30477550     0.00314404     0.00375067    -0.00153278
H         0.43061720     1.22225358     0.15360287    -0.00031596     0.00224620     0.00525868
