     6
  Step:   120            Position(A)                                  Velocity(au)
C        -0.04435249    -0.02348313    -0.17185559     0.00000070     0.00000791     0.00034050
N        -0.05250224    -0.13618710     1.47328780    -0.00003290     0.00006653    -0.00029227
H         0.82539113     0.62870265    -0.42415612    -0.00047984     0.00136108     0.00077075
H         0.88087010     0.00515223     1.90424456     0.00002970    -0.00172120     0.00018696
H        -0.68375883     0.70580697     1.70625165     0.00109719     0.00103691    -0.00056623
H        -0.97733834     0.16289826    -0.71976509    -0.00019819    -0.00169553    -0.00038734
