    14
  Step:   600            Position(A)                                  Velocity(au)
C        -5.24628991    -0.18728089     0.74341863    -0.00015125    -0.00022740    -0.00023802
C        -4.59934437    -0.73518364    -0.23220409     0.00048944     0.00051829     0.00088463
H        -5.48353973     0.93880963     0.59274431    -0.00100710     0.00111733    -0.00073246
H        -5.52787094    -0.56590778     1.74139449     0.00059506     0.00049482    -0.00042530
H        -4.37439024    -1.82790471    -0.38360812     0.00341444     0.00197227    -0.00032532
C        -3.88803988     0.38514381    -1.01055752     0.00057337    -0.00035042    -0.00007148
C        -2.99621596     1.32542692    -0.54603694    -0.00063867     0.00064984    -0.00050375
H        -4.46206733     0.83004530    -1.85289508     0.00040231    -0.00094953    -0.00172763
H        -2.82611254     2.21514319    -1.11972179     0.00089804     0.00178009     0.00243458
C        -2.06155305     1.03689213     0.52612207    -0.00005044    -0.00018433     0.00051596
H        -2.36930500     0.25566800     1.21268514     0.00034728    -0.00182853    -0.00100530
N        -0.76133106     1.21014909     0.68721520    -0.00052023    -0.00033299    -0.00025201
H        -0.31681976     0.91062372     1.55661805     0.00115479    -0.00141944    -0.00054132
H        -0.11429247     1.32047946    -0.09703668    -0.00122640    -0.00137737    -0.00117414
