12

C       -0.04032531     0.06648294     0.01703404
N       -0.03279175    -0.02089327     1.31567864
H        0.82837564     0.14427866    -0.68283950
H        0.55327264    -0.81374360     1.69072009
H       -0.88995180     0.15170132     1.90006362
H       -0.76844105    -0.65389113    -0.50202566
C       -0.04121278     0.06631775     0.01754846
N       -0.03211013    -0.02153601     1.31491583
H        0.82876636     0.15295522    -0.67964915
H        0.54798278    -0.81668785     1.69201188
H       -0.88852353     0.16218383     1.89988023
H       -0.76386709    -0.65920575    -0.50185389
