    14
  Step:   600            Position(A)                                  Velocity(au)
C        -5.78482957    -0.57955771     0.53297628     0.00071121     0.00003149    -0.00063273
C        -4.79673693    -0.75413039    -0.32417274     0.00025081     0.00008165    -0.00012778
H        -5.77654907     0.30377530     1.19234275    -0.00122899     0.00100816    -0.00079733
H        -6.67665805    -1.19841645     0.50154110     0.00100077    -0.00197410    -0.00078207
H        -4.93010270    -1.48103681    -1.05103057     0.00166500    -0.00060454     0.00038882
C        -3.82557189     0.27586890    -0.16333642    -0.00089444     0.00026103     0.00100269
C        -2.46602873     0.58432423    -0.44480475    -0.00043376     0.00018592     0.00026518
H        -4.00640369     0.84712985     0.71205426    -0.00062703     0.00039510     0.00125870
H        -1.80172486    -0.15796183    -0.91212271    -0.00058729     0.00083748     0.00050161
C        -1.94620359     1.75557320     0.00250155     0.00021759    -0.00003270    -0.00019479
H        -2.36652832     2.83035671     0.23523562    -0.00110981    -0.00070923    -0.00123868
N        -0.68404917     1.66304054     0.55216930     0.00007326    -0.00010286     0.00001610
H        -0.04481367     2.45911257     0.72528759     0.00106702    -0.00051829    -0.00397493
H        -0.61237029     0.65043240     0.66587616     0.00057280    -0.00328969     0.00069555
