     6
  Step:   600            Position(A)                                  Velocity(au)
C        -0.11353426     0.03257380     0.07284201     0.00044614    -0.00134993     0.00113173
N         0.03676679    -0.07443090     1.25492999    -0.00068660     0.00020493    -0.00166961
H         0.61219089     0.49561842    -0.45260289    -0.00039239     0.00502132     0.00632751
H        -0.57778057    -0.83767299     1.90059498     0.00393041     0.00255992    -0.00020405
H         0.51451368     0.84277600     1.51028892     0.00026230    -0.00064155    -0.00139531
H        -0.92054363    -0.52441592    -0.37372458     0.00042455     0.00629833     0.00498756
