     6
  Step:   120            Position(A)                                  Velocity(au)
C        -0.03040017     0.03873491    -0.00478324    -0.00002225     0.00004628     0.00057060
N        -0.04257748    -0.00582906     1.34437054     0.00000818    -0.00005011    -0.00053573
H         0.90798832    -0.14238523    -0.67616125    -0.00161484    -0.00002322     0.00058546
H         0.77678033    -0.46879160     1.77045199    -0.00023402     0.00010276    -0.00045177
H        -0.92976678    -0.30640469     1.84111803     0.00009856     0.00048355    -0.00035243
H        -1.01400102    -0.13277761    -0.66823930     0.00190175    -0.00041810     0.00086419
