12

C       -0.03980677    -0.01064775    -0.10364625
N       -0.03557904    -0.11858878     1.41284050
H        0.86538117    -0.18488246    -0.72274440
H        0.58989706     0.64995725     1.75160574
H       -0.93836731    -0.11223441     1.95864391
H       -0.76111037     0.75221488    -0.49373687
C       -0.04021581    -0.01094581    -0.10049914
N       -0.03513200    -0.11819524     1.40997184
H        0.86249282    -0.19235154    -0.72162901
H        0.58261662     0.65737046     1.74926661
H       -0.93724268    -0.12077928     1.95732263
H       -0.75340443     0.75889847    -0.48882908
