    14
  Step:   600            Position(A)                                  Velocity(au)
C        -5.88863635    -0.84293139    -0.20287081    -0.00060955     0.00027965     0.00025166
C        -4.63833556    -0.74718199     0.34322426     0.00038662    -0.00082163     0.00006915
H        -6.32290946     0.12595981    -0.16842570     0.00068354     0.00258146     0.00033077
H        -6.47559547    -1.69172956    -0.62513656    -0.00136926     0.00069539     0.00003326
H        -3.93554551    -1.51193352     0.58556242     0.00109211    -0.00047548    -0.00024850
C        -3.95928538     0.51924785     0.05459063    -0.00100509    -0.00011698    -0.00002242
C        -2.59796860     0.60636418     0.01796928     0.00141989     0.00014035    -0.00052596
H        -4.36832198     1.39074650    -0.55427322    -0.00220214    -0.00069999    -0.00239602
H        -2.09339730    -0.31337467     0.38566736    -0.00016788     0.00160913     0.00179854
C        -1.89309876     1.82921362    -0.15746113    -0.00012473     0.00013698    -0.00066964
H        -2.22117653     2.73356083    -0.50159010     0.00038913    -0.00063256     0.00260758
N        -0.59613471     1.62714479     0.30254930     0.00008542     0.00020534     0.00064332
H         0.24066567     2.24476931     0.14883845    -0.00067965    -0.00228523     0.00067262
H        -0.37813919     0.78953579     0.87746484     0.00026708     0.00090124    -0.00104685
