6

C       -0.04400336     0.00789862     0.02743288
N       -0.03171398    -0.04881691     1.29417215
H        0.11537665    -0.88373845    -0.60043158
H       -0.02115628     0.77760242     1.89522850
H       -0.15710212    -0.92794133     1.81291872
H       -0.18497527     0.94855251    -0.52681105
