6

C       -0.02500065    -0.00230686     0.02449834
N       -0.02842599    -0.04800426     1.29224834
H        0.02587661    -0.85053054    -0.64766720
H       -0.35235616     0.76326204     1.84366552
H       -0.19657790    -0.87962280     1.86751070
H        0.00304652     0.99171142    -0.42093371
