6

C       -0.02537392    -0.05754540     0.00050350
N       -0.04359593    -0.04156666     1.32222074
H        0.74805465     0.63557219    -0.53798107
H        0.75167182    -0.46120852     1.84372342
H       -0.86673561     0.31486087     1.87156317
H       -0.93774987     0.10431523    -0.66529423
