     6
  Step:   300            Position(A)                                  Velocity(au)
C        -0.03200002     0.00777586     0.02999336    -0.00000030     0.00002887    -0.00010401
N        -0.03774079    -0.05080151     1.28567389    -0.00000190     0.00001293     0.00012196
H        -0.02543790    -0.86603351    -0.61389119    -0.00112393     0.00018320    -0.00004987
H        -0.33191484     0.73221592     1.88598642    -0.00118988    -0.00067241    -0.00012851
H         0.06122297    -0.90469910     1.84966599     0.00116457     0.00020707     0.00012091
H        -0.01101412     0.98203463    -0.45330918     0.00117920    -0.00024157    -0.00039784
