6

C       -0.03559046    -0.02925537     0.01116446
N       -0.05498908    -0.08855774     1.31400064
H        0.71440192     0.69619876    -0.46996103
H        0.77229859    -0.34855192     1.88999274
H       -0.61599903     0.69068031     1.77505706
H       -0.89541588    -0.12884874    -0.69591290
