12

C       -0.04355190    -0.02493888    -0.13008258
N       -0.05346870    -0.12914679     1.43372645
H        0.78434508     0.68362263    -0.40458034
H        0.88012474    -0.06309824     1.93525159
H       -0.65291345     0.67933268     1.71090520
H       -0.96249976     0.12220064    -0.72300977
C       -0.04333764    -0.02503084    -0.12728875
N       -0.05358683    -0.12872992     1.43120400
H        0.77983268     0.69035117    -0.40051164
H        0.87733422    -0.07199509     1.93477784
H       -0.64664571     0.68544850     1.70899945
H       -0.96237606     0.11355589    -0.72293767
