6

C       -0.04333764    -0.02503084    -0.12728875
N       -0.05358683    -0.12872992     1.43120400
H        0.77983268     0.69035117    -0.40051164
H        0.87733422    -0.07199509     1.93477784
H       -0.64664571     0.68544850     1.70899945
H       -0.96237606     0.11355589    -0.72293767
