14

C       -5.29451837    -1.00883494     0.55319471
C       -5.01139224    -0.24484397    -0.47388087
H       -4.97101938    -0.91132090     1.58563343
H       -6.19304480    -1.61785734     0.38512437
H       -5.52770938    -0.24884947    -1.42438456
C       -3.87243142     0.69957592    -0.39791710
C       -2.67901341     0.33115935     0.23395675
H       -3.73534123     1.81724314    -0.97359406
H       -2.78113001    -0.81652781     0.47425568
C       -1.43974406     0.96087796     0.02418903
H       -0.66493729     0.44089039    -0.48887330
N       -1.14750457     2.14966738     0.37507351
H       -0.31501293     2.63912064     0.04575761
H       -1.81063589     2.67289161     0.91806690
