6

C       -0.04045591     0.02369082     0.01671485
N       -0.04516353    -0.01425329     1.33127471
H        0.83006941    -0.17373875    -0.69002820
H        0.85712174    -0.21885654     1.79942294
H       -0.89326438    -0.43624705     1.79402073
H       -0.89717735     0.07483514    -0.71041513
