14

C       -5.77328934    -0.23437795     0.14209880
C       -4.54936068    -0.66282336     0.38975692
H       -5.98630114    -0.18780623    -0.96578134
H       -6.61551163    -0.04941048     0.87744587
H       -4.02795567    -0.53452901     1.37131695
C       -3.80923109    -0.05526891    -0.67937727
C       -2.49717936     0.51781058    -0.55070845
H       -4.38479148    -0.20214466    -1.64938811
H       -2.48521661     1.26486544    -1.33303449
C       -1.86530122     1.16846270     0.64051201
H       -2.01452639     0.65848748     1.63805959
N       -0.95593745     2.04686065     0.36186307
H       -0.43081544     2.37057558     1.25785669
H       -0.36371309     2.13277459    -0.52291836
