6

C       -0.03064873    -0.00588039     0.01599699
N       -0.04494722    -0.03803600     1.29841922
H        0.90725678    -0.16923611    -0.49587989
H        0.79301878     0.12186903     1.86345742
H       -0.94056585    -0.22941684     1.75377319
H       -0.98283169     0.20562266    -0.46320388
