6

C       -0.04739687     0.00977088     0.02533480
N       -0.02460344    -0.05311887     1.29421152
H        0.03814798    -0.86461282    -0.62749388
H       -0.14041577     0.77299497     1.89355208
H       -0.08190970    -0.92085255     1.84167566
H       -0.12207095     0.96442746    -0.50240342
