6

C   -0.03502839    0.01742496    0.02954629   -0.00009585   -0.00001291   -0.00018366
N   -0.04086227   -0.03953507    1.28473207   -0.00015305   -0.00003321    0.00007298
H    0.88857684   -0.01273741   -0.52926943    0.00048772    0.00013332   -0.00043464
H    0.79005012   -0.21529481    1.88025339    0.00119004    0.00001214    0.00142714
H   -0.91762408   -0.11999385    1.84437400    0.00091162    0.00025567   -0.00067146
H   -0.98870401    0.02000364   -0.50848050    0.00067968    0.00021420    0.00085332
