6

C   -0.03699402    0.01770471    0.00674739    0.00006443   -0.00002467   -0.00025019
N   -0.05038646   -0.04527667    1.30225070   -0.00004420   -0.00006675    0.00015469
H    0.91834431   -0.03515998   -0.48463518    0.00001945    0.00036225    0.00001554
H    0.88378967   -0.15031787    1.88368272    0.00050397    0.00024492   -0.00024904
H   -0.88327104   -0.11287390    1.84721671   -0.00070745    0.00044819    0.00075779
H   -0.99078931    0.04678339   -0.53115911    0.00003049    0.00016620    0.00030741
