14

C       -5.44573574    -1.01868931     0.55040700
C       -5.10966983     0.10329479    -0.05190653
H       -4.98450796    -1.92673493     0.08740730
H       -6.03632042    -1.24373560     1.43461497
H       -5.16828691     1.16395933     0.30817634
C       -3.82603108     0.14301128    -0.80244172
C       -2.70086712     0.86479545    -0.57051296
H       -3.78575209    -0.53972911    -1.75002361
H       -2.03541800     1.13550050    -1.47603398
C       -1.95709866     1.45453369     0.50558800
H       -2.31643558     1.76358992     1.65306497
N       -0.62304975     1.51171659     0.55236573
H       -0.26691205     1.72544790     1.50063779
H        0.15398077     1.12236108    -0.02425326
