6

C       -0.03789728     0.04077909     0.02341193
N       -0.05328623    -0.09660205     1.29694222
H        0.92652987     0.14024221    -0.45824091
H        0.83283404    -0.18396921     1.80961692
H       -0.84611634     0.27493960     1.81882836
H       -0.93410220    -0.04450062    -0.57991568
