6

C       -0.03714400    -0.02325906    -0.21256390
N       -0.05035340    -0.13906373     1.50535314
H        0.90386380     0.46621767    -0.57245378
H        0.82487280     0.30906251     1.89306747
H       -0.81416615     0.46998594     1.82073841
H       -0.98517977     0.29460015    -0.63530051
