6

C       -0.03286128     0.01748907     0.01439010
N       -0.04862738    -0.05636000     1.29992662
H        0.00539626     0.99453654    -0.47243810
H       -0.23688838    -0.93346383     1.79143032
H        0.13677875     0.75097678     1.90160328
H       -0.05090366    -0.90706575    -0.56427871
