14

C       -5.98661064    -0.83673651    -0.26721401
C       -4.66972038    -0.70060929     0.15812153
H       -6.21845408     0.00616440    -0.85106269
H       -6.67750461    -1.59234230    -0.10689743
H       -4.39554836    -1.37287328     1.01459038
C       -3.79919284     0.49462349    -0.17710438
C       -2.56712315     0.55440992     0.34736853
H       -4.26798734     1.42451597    -0.77547856
H       -2.40387383    -0.29330665     1.16061390
C       -1.73868665     1.68693387     0.51566687
H       -1.91021256     2.61326857     1.13224844
N       -0.70782574     1.73835483    -0.18107625
H       -0.06044033     2.57166993    -0.13827915
H       -0.64278936     0.84412992    -0.77890472
