12

C       -0.03298477     0.03374048    -0.01742876
N       -0.04043644    -0.07127050     1.34289538
H        0.73699442    -0.48423277    -0.67813214
H        0.73156337     0.37244466     1.89417897
H       -0.86013681    -0.39807359     1.90302862
H       -0.86638510     0.42842937    -0.68069256
C       -0.03301193     0.03343421    -0.01383103
N       -0.04001578    -0.07081385     1.33969051
H        0.73206150    -0.49107320    -0.67622253
H        0.72511565     0.37851497     1.89212589
H       -0.85869898    -0.40617754     1.90134802
H       -0.86196427     0.43460718    -0.67720327
