     6
  Step:   120            Position(A)                                  Velocity(au)
C        -0.04742835     0.08364729    -0.00468975    -0.00014818     0.00014876    -0.00033170
N        -0.03563193    -0.04157557     1.33633393     0.00004558    -0.00016071     0.00019133
H         0.87662635    -0.07685041    -0.67434123     0.00078194     0.00084341     0.00041004
H         0.75368581    -0.54995786     1.80602695    -0.00021882    -0.00073360     0.00030608
H        -0.93609163     0.05232670     1.84588206     0.00024520     0.00170861     0.00003543
H        -0.84684997    -0.51429252    -0.59980218     0.00032399    -0.00135783     0.00054218
