12

C       -0.03829261    -0.01283130    -0.07771398
N       -0.05974526    -0.11156412     1.39026370
H        0.76183999     0.66498050    -0.47736842
H        0.82440931    -0.24902788     1.94445547
H       -0.58238855     0.72516691     1.77099533
H       -0.93026884    -0.10765156    -0.73958860
C       -0.03790393    -0.01304082    -0.07434492
N       -0.06002634    -0.11117426     1.38725762
H        0.75523446     0.67192200    -0.47308081
H        0.82068513    -0.25724671     1.94200301
H       -0.57495295     0.73165264     1.76895432
H       -0.92810037    -0.11578091    -0.73775503
