6

C       -0.02881551     0.01161071    -0.02173176
N       -0.04173044    -0.04685831     1.33751301
H        0.89873928    -0.01214999    -0.57825164
H        0.77952031    -0.12772121     1.83715508
H       -0.94637734    -0.13386160     1.87589410
H       -1.02156205     0.11675504    -0.57034437
