     6
  Step:   120            Position(A)                                  Velocity(au)
C        -0.03425696     0.06988565     0.02324264     0.00008800     0.00008936     0.00007602
N        -0.04374144    -0.02708594     1.31759713    -0.00004094    -0.00008850    -0.00011526
H         0.73312666    -0.43968139    -0.63468743    -0.00028711    -0.00089623     0.00068937
H         0.82842554    -0.14605680     1.87928296     0.00012044     0.00107896    -0.00057778
H        -0.88692755    -0.42609706     1.77302483    -0.00013975    -0.00045990    -0.00015835
H        -0.87150838    -0.11430563    -0.71234184    -0.00017331     0.00044212     0.00074258
