     6
  Step:   300            Position(A)                                  Velocity(au)
C        -0.04272622     0.01394842     0.03274134     0.00000562    -0.00000833    -0.00000677
N        -0.04005234    -0.05371135     1.28784611    -0.00001604     0.00001961     0.00002182
H         0.15708953    -0.86255516    -0.58643879     0.00106614     0.00010461     0.00027502
H         0.03079334     0.76687832     1.89190394     0.00123176    -0.00000166    -0.00034197
H        -0.09594584    -0.94056612     1.79795278    -0.00108134    -0.00014778    -0.00039519
H        -0.23918088     0.94664533    -0.49791114    -0.00106065    -0.00012846     0.00023951
