6

C   -0.03602842    0.01137465    0.01328363   -0.00001191    0.00004871   -0.00013548
N   -0.04109561   -0.05793904    1.30398936    0.00011081    0.00010044    0.00014622
H    0.91628810    0.01045616   -0.48071343   -0.00028034   -0.00020689    0.00012963
H    0.82452482   -0.08356772    1.78921785   -0.00053538   -0.00079442   -0.00086672
H   -0.94727070   -0.03488943    1.87218185   -0.00100272   -0.00045522    0.00016333
H   -1.00608440    0.10782359   -0.56762852    0.00042058   -0.00051975    0.00015626
