     6
  Step:   300            Position(A)                                  Velocity(au)
C        -0.04235114     0.01336658     0.02965178     0.00000853    -0.00001461    -0.00010200
N        -0.04187019    -0.05282964     1.29062711    -0.00001193     0.00001364     0.00008488
H         0.20464246    -0.85904084    -0.57171946     0.00078790     0.00003368     0.00037569
H         0.06197748     0.77295621     1.88033322     0.00088791     0.00013133    -0.00039191
H        -0.10462235    -0.94826480     1.78276250    -0.00080801    -0.00017262    -0.00043355
H        -0.28842781     0.93942641    -0.48767504    -0.00080371    -0.00000781     0.00048569
