     6
  Step:   120            Position(A)                                  Velocity(au)
C        -0.03220814     0.03428856     0.01547014     0.00007527    -0.00001443     0.00020335
N        -0.05119512    -0.03279508     1.31519131    -0.00005922    -0.00003222    -0.00020957
H         0.68082368    -0.60280543    -0.60481000    -0.00098732    -0.00125106     0.00035692
H         0.73921602     0.27379141     1.92656779    -0.00068678     0.00155535    -0.00027356
H        -0.70175057    -0.73266511     1.77666541     0.00106462    -0.00106261    -0.00024551
H        -0.83601867     0.43904556    -0.66707790     0.00053562     0.00137810     0.00065129
