6

C       -0.03980031     0.01981234     0.01173506
N       -0.04972256    -0.02545971     1.32105805
H        0.75124086    -0.44792827    -0.64176475
H        0.78844036     0.13388282     1.92849065
H       -0.75940580    -0.65789096     1.79385361
H       -0.82799443     0.41987444    -0.68626407
