6

C   -0.04104358    0.02362603    0.02160572    0.00013056   -0.00001758    0.00021062
N   -0.04157779   -0.06028713    1.29833946    0.00009435   -0.00007904   -0.00030748
H    0.92589814   -0.03572128   -0.51554533   -0.00092879    0.00022722    0.00054253
H    0.82517578   -0.03813923    1.79626103   -0.00098223    0.00047276   -0.00041270
H   -0.94433075   -0.05496698    1.86906748   -0.00094435    0.00052729    0.00136612
H   -0.95282343    0.01529152   -0.55737902   -0.00001150    0.00008060    0.00026724
