6

C       -0.04512495     0.03629646    -0.02080062
N       -0.01338084    -0.09115431     1.33782858
H        0.11502720    -0.75247480    -0.45520370
H       -0.10492362     0.91508700     1.52106460
H       -0.46569828    -0.98924570     1.71484989
H       -0.03342288     0.99113487    -0.23155731
