     6
  Step:   120            Position(A)                                  Velocity(au)
C        -0.04874197    -0.02201567     0.00029234    -0.00005195     0.00003738     0.00041377
N        -0.04644846    -0.04913213     1.31944951     0.00000608    -0.00002154    -0.00037858
H         0.79907751    -0.32190009    -0.67406379    -0.00071395    -0.00138897     0.00052182
H         0.66705912     0.47031534     1.89495811    -0.00085162     0.00140179    -0.00014950
H        -0.74677907    -0.59561036     1.88613145     0.00104839    -0.00109627    -0.00055340
H        -0.70601188     0.72251361    -0.55399602     0.00105180     0.00093733     0.00051153
