     6
  Step:   300            Position(A)                                  Velocity(au)
C        -0.01160764     0.01279761     0.01544302    -0.00005931     0.00011436     0.00011374
N        -0.07983581    -0.05288152     1.30331803     0.00023284    -0.00001343    -0.00013637
H         0.32863961     0.94091294    -0.43927290    -0.00026686     0.00006307    -0.00049367
H         0.04738744    -0.97301348     1.73650570    -0.00165603    -0.00029237    -0.00003188
H        -0.00738101     0.80806671     1.85015935    -0.00087664    -0.00029322     0.00017709
H        -0.33384118    -0.86338868    -0.55073922     0.00027057    -0.00065362     0.00088819
