6

C       -0.03040017     0.03873491    -0.00478324
N       -0.04257748    -0.00582906     1.34437054
H        0.90798832    -0.14238523    -0.67616125
H        0.77678033    -0.46879160     1.77045199
H       -0.92976678    -0.30640469     1.84111803
H       -1.01400102    -0.13277761    -0.66823930
