     6
  Step:     0            Position(A)                                  Velocity(au)
C        -0.04380165     0.02156909     0.02239578     0.00004691     0.00007976    -0.00023245
N        -0.03688260    -0.06534548     1.28829135    -0.00011559     0.00000774     0.00025912
H         0.91310255    -0.04102045    -0.50380263    -0.00018796    -0.00022563    -0.00025835
H         0.79563749    -0.04994390     1.87401759     0.00102059    -0.00028041     0.00055823
H        -0.93308130     0.00200841     1.88577307     0.00058576    -0.00014912    -0.00108063
H        -0.95412003     0.07022360    -0.53336566    -0.00037110    -0.00040290    -0.00005020
     6
  Step:     1            Position(A)                                  Velocity(au)
C        -0.04353193     0.02202342     0.02097356     0.00005161     0.00008629    -0.00028606
N        -0.03755298    -0.06532032     1.28989266    -0.00012803     0.00000154     0.00032497
H         0.91228203    -0.04228919    -0.50548673    -0.00011174    -0.00023836    -0.00035781
H         0.80139310    -0.05143007     1.87720036     0.00107150    -0.00026342     0.00059690
H        -0.92951360     0.00118202     1.87961561     0.00070862    -0.00015222    -0.00116206
H        -0.95652107     0.06804113    -0.53401209    -0.00050427    -0.00039563    -0.00018425
     6
  Step:     2            Position(A)                                  Velocity(au)
C        -0.04323704     0.02251305     0.01926642     0.00005601     0.00009256    -0.00033610
N        -0.03828318    -0.06532868     1.29184639    -0.00013720    -0.00000450     0.00038721
H         0.91188016    -0.04362797    -0.50771691    -0.00003572    -0.00025094    -0.00045709
H         0.80735927    -0.05282563     1.88054743     0.00109668    -0.00024699     0.00061788
H        -0.92532924     0.00034315     1.87306053     0.00080834    -0.00015340    -0.00122344
H        -0.95963652     0.06589551    -0.53538124    -0.00063021    -0.00038910    -0.00031317
     6
  Step:     3            Position(A)                                  Velocity(au)
C        -0.04291886     0.02303646     0.01729495     0.00005997     0.00009841    -0.00038172
N        -0.03905461    -0.06536960     1.29413066    -0.00014270    -0.00001034     0.00044450
H         0.91189105    -0.04503575    -0.51048958     0.00003817    -0.00026298    -0.00055445
H         0.81339619    -0.05413331     1.88396300     0.00109559    -0.00023078     0.00062109
H        -0.92066638    -0.00049694     1.86622518     0.00087963    -0.00015223    -0.00126063
H        -0.96341863     0.06378241    -0.53743976    -0.00074504    -0.00038300    -0.00043443
     6
  Step:     4            Position(A)                                  Velocity(au)
C        -0.04258002     0.02359120     0.01508430     0.00006333     0.00010366    -0.00042200
N        -0.03984657    -0.06544198     1.29671639    -0.00014417    -0.00001593     0.00049543
H         0.91229836    -0.04650917    -0.51379154     0.00010786    -0.00027401    -0.00064786
H         0.81936269    -0.05535406     1.88735211     0.00106843    -0.00021453     0.00060698
H        -0.91569189    -0.00132472     1.85924899     0.00091738    -0.00014833    -0.00126983
H        -0.96779919     0.06169931    -0.54014088    -0.00084495    -0.00037700    -0.00054539
     6
  Step:     5            Position(A)                                  Velocity(au)
C        -0.04222392     0.02417392     0.01266433     0.00006598     0.00010815    -0.00045611
N        -0.04063654    -0.06554445     1.29956700    -0.00014136    -0.00002123     0.00053865
H         0.91307457    -0.04804243    -0.51759854     0.00017122    -0.00028359    -0.00073516
H         0.82512003    -0.05648737     1.89062336     0.00101626    -0.00019806     0.00057662
H        -0.91060004    -0.00212453     1.85229134     0.00091722    -0.00014138    -0.00124809
H        -0.97269029     0.05964562    -0.54342427    -0.00092656    -0.00037078    -0.00064356
     6
  Step:     6            Position(A)                                  Velocity(au)
C        -0.04185454     0.02478033     0.01006930     0.00006783     0.00011173    -0.00048336
N        -0.04140084    -0.06567539     1.30263886    -0.00013420    -0.00002617     0.00057302
H         0.91418090    -0.04962727    -0.52187465     0.00022625    -0.00029133    -0.00081424
H         0.83053655    -0.05753173     1.89369208     0.00094114    -0.00018126     0.00053171
H        -0.90560703    -0.00287915     1.84552619     0.00087630    -0.00013120    -0.00119379
H        -0.97798675     0.05762254    -0.54721688    -0.00098714    -0.00036408    -0.00072683
     6
  Step:     7            Position(A)                                  Velocity(au)
C        -0.04147633     0.02540539     0.00733700     0.00006883     0.00011431    -0.00050330
N        -0.04211557    -0.06583285     1.30588251    -0.00012280    -0.00003070     0.00059777
H         0.91556816    -0.05125327    -0.52657270     0.00027126    -0.00029691    -0.00088330
H         0.83549280    -0.05848512     1.89648359     0.00084608    -0.00016413     0.00047455
H        -0.90094193    -0.00357057     1.83913408     0.00079387    -0.00011781    -0.00110710
H        -0.98357000     0.05563288    -0.55143501    -0.00102495    -0.00035671    -0.00079365
     6
  Step:     8            Position(A)                                  Velocity(au)
C        -0.04109396     0.02604349     0.00450741     0.00006897     0.00011582    -0.00051582
N        -0.04275782    -0.06601461     1.30924472    -0.00010752    -0.00003477     0.00061261
H         0.91717858    -0.05290840    -0.53163581     0.00030504    -0.00030019    -0.00094099
H         0.83988641    -0.05934549     1.89893619     0.00073488    -0.00014675     0.00040787
H        -0.89683418    -0.00418102     1.83329193     0.00067171    -0.00010139    -0.00099019
H        -0.98931327     0.05368057    -0.55598739    -0.00103940    -0.00034858    -0.00084325
     6
  Step:     9            Position(A)                                  Velocity(au)
C        -0.04071206     0.02668879     0.00162100     0.00006831     0.00011628    -0.00052115
N        -0.04330699    -0.06621819     1.31267110    -0.00008894    -0.00003837     0.00061778
H         0.91894845    -0.05457974    -0.53700014     0.00032694    -0.00030113    -0.00098661
H         0.84363628    -0.06011128     1.90100339     0.00061190    -0.00012926     0.00033472
H        -0.89349842    -0.00469417     1.82816138     0.00051432    -0.00008237    -0.00084725
H        -0.99508804     0.05177008    -0.56077943    -0.00103114    -0.00033972    -0.00087573
     6
  Step:    10            Position(A)                                  Velocity(au)
C        -0.04033498     0.02733555    -0.00128325     0.00006693     0.00011579    -0.00051989
N        -0.04374609    -0.06644097     1.31610908    -0.00006785    -0.00004148     0.00061406
H         0.92081133    -0.05625437    -0.54259842     0.00033695    -0.00029991    -0.00102024
H         0.84668544    -0.06078172     1.90265539     0.00048175    -0.00011185     0.00025820
H        -0.89111939    -0.00509628     1.82387783     0.00032855    -0.00006132    -0.00068409
H        -1.00077063     0.04990576    -0.56571797    -0.00100194    -0.00033029    -0.00089207
     6
  Step:    11            Position(A)                                  Velocity(au)
C        -0.03996655     0.02797853    -0.00416982     0.00006496     0.00011448    -0.00051296
N        -0.04406274    -0.06668026     1.31951088    -0.00004514    -0.00004413     0.00060271
H         0.92270155    -0.05792032    -0.54836416     0.00033563    -0.00029684    -0.00104267
H         0.84900230    -0.06135710     1.90387933     0.00034894    -0.00009471     0.00018126
H        -0.88983881    -0.00537715     1.82054153     0.00012303    -0.00003892    -0.00050763
H        -1.00624825     0.04809116    -0.57071590    -0.00095446    -0.00032053    -0.00089402
     6
  Step:    12            Position(A)                                  Velocity(au)
C        -0.03960994     0.02861327    -0.00700830     0.00006254     0.00011255    -0.00050146
N        -0.04424987    -0.06693349     1.32283586    -0.00002175    -0.00004635     0.00058527
H         0.92455727    -0.05956740    -0.55423561     0.00032401    -0.00029236    -0.00105533
H         0.85057992    -0.06183877     1.90467837     0.00021752    -0.00007802     0.00010651
H        -0.88974621    -0.00553071     1.81821219    -0.00009276    -0.00001593    -0.00032510
H        -1.01142325     0.04632841    -0.57569600    -0.00089183    -0.00031077    -0.00088380
     6
  Step:    13            Position(A)                                  Velocity(au)
C        -0.03926756     0.02923639    -0.00977438     0.00005980     0.00011018    -0.00048657
N        -0.04430579    -0.06719828     1.32605213     0.00000143    -0.00004820     0.00056339
H         0.92632287    -0.06118787    -0.56015909     0.00030337    -0.00028695    -0.00106001
H         0.85143345    -0.06222904     1.90506978     0.00009088    -0.00006188     0.00003611
H        -0.89087554    -0.00555520     1.81690809    -0.00030946     0.00000696    -0.00014332
H        -1.01621583     0.04461782    -0.58059366    -0.00081733    -0.00030137    -0.00086391
