6

C        0.12679295     0.00573231    -0.10900258
N       -0.15850581    -0.12857024     1.46526908
H       -0.29592335     0.76927422    -0.63184791
H       -1.06557410     0.54383701     1.61133145
H        0.67412715     0.24104201     1.89692980
H        0.16664444    -0.50562692    -1.04711220
