14

C       -5.90148572     0.15457585     0.50522849
C       -4.95097808    -0.58760491    -0.09573602
H       -5.92682210     1.24757610     0.27508903
H       -6.69496367    -0.27941906     1.03508915
H       -5.22615732    -1.65434340     0.13063244
C       -3.51519316    -0.35274374    -0.68086127
C       -2.60209317     0.43149906     0.04929172
H       -3.22238134    -0.65632309    -1.75360014
H       -2.93302192     0.48439185     1.08979195
C       -1.41342573     1.28649577    -0.40066723
H       -0.90397539     1.48078207    -1.38318700
N       -1.02354911     1.92978756     0.75823914
H       -0.08830684     2.27613774     0.95899266
H       -1.69927632     1.81605341     1.54496551
