     6
  Step:   300            Position(A)                                  Velocity(au)
C        -0.01854527     0.01939890     0.01742501    -0.00013888     0.00010328     0.00013487
N        -0.06607550    -0.05780347     1.29892498     0.00028856    -0.00000864    -0.00018855
H         0.28855429     0.96707943    -0.43963836    -0.00059635     0.00011753    -0.00030213
H        -0.01304293    -0.98059825     1.74892712    -0.00246575    -0.00005041     0.00023213
H        -0.02294050     0.79929243     1.85330980    -0.00038924    -0.00039560     0.00041632
H        -0.32631527    -0.88348326    -0.52849218     0.00109641    -0.00078214     0.00066677
