6

C   -0.04160885    0.02074693    0.02130866   -0.00004560   -0.00010039    0.00023517
N   -0.04009887   -0.04698151    1.29368068   -0.00001866    0.00012389   -0.00026812
H    0.90925896   -0.03451579   -0.53622830   -0.00037930    0.00035498    0.00011654
H    0.80576657   -0.17703007    1.94431145   -0.00019939   -0.00060675    0.00017256
H   -0.87067661   -0.08100089    1.78822702    0.00039839   -0.00033271    0.00010425
H   -1.00424523    0.02841820   -0.53562579    0.00098300    0.00005914    0.00053028
