14

C       -5.74600182    -0.57953088     0.39259331
C       -4.55845876    -0.95517093    -0.25627347
H       -5.97855924     0.43748207     0.42396588
H       -6.24068556    -1.15515617     1.16137753
H       -4.02600841    -1.97844294    -0.31491388
C       -3.90389011     0.29835501    -0.41599723
C       -2.67114549     0.72211354    -0.00155953
H       -4.43748157     1.19107709    -1.08746940
H       -2.00790366    -0.01546640     0.33088482
C       -1.94424002     1.97187249     0.11592925
H       -1.99661048     2.99922988    -0.11043949
N       -0.74570118     1.52556758     0.40700476
H        0.10891866     2.05696085     0.35229418
H       -0.72772264     0.53579842     0.57185042
