6

C        0.17316489     0.04897220     0.04423770
N       -0.20683925    -0.07195636     1.26672167
H        0.53252974     1.10214881     0.27344616
H       -1.83436988    -0.49483516     1.25555706
H        0.72882864     0.16352643     1.69534402
H        0.17071089    -1.02436883    -0.46209955
