     6
  Step:   300            Position(A)                                  Velocity(au)
C        -0.04612032     0.01978389     0.02789827     0.00000643     0.00002009    -0.00004773
N        -0.02607501    -0.05976610     1.29340498    -0.00001754     0.00000521     0.00000954
H         0.22701976     0.93908237    -0.50060038     0.00099313    -0.00028100     0.00064292
H        -0.08971584    -0.94661796     1.79545944     0.00118851    -0.00032983    -0.00038828
H        -0.12164940     0.77413840     1.88247455    -0.00100367     0.00015463    -0.00058442
H        -0.31666967    -0.84160074    -0.59135052    -0.00101074     0.00014442     0.00076600
