     6
  Step:     0            Position(A)                                  Velocity(au)
C        -0.03870670     0.01091104     0.01808686    -0.00002805    -0.00011645    -0.00028164
N        -0.04085659    -0.06139538     1.30374652    -0.00019629     0.00010272     0.00023986
H         0.94380273     0.04621453    -0.53666266     0.00048609     0.00060463    -0.00043527
H         0.84315765    -0.04008385     1.81034051     0.00104169    -0.00056731     0.00041559
H        -0.97556436    -0.00904736     1.84833337     0.00110938    -0.00031032    -0.00084814
H        -0.99534497     0.05629427    -0.56281465     0.00042477     0.00023319     0.00089074
     6
  Step:     1            Position(A)                                  Velocity(au)
C        -0.03886036     0.01028387     0.01641086    -0.00002725    -0.00011303    -0.00032942
N        -0.04197178    -0.06084340     1.30518566    -0.00020942     0.00009921     0.00028495
H         0.94637011     0.04952638    -0.53913299     0.00044888     0.00060632    -0.00046550
H         0.84894631    -0.04316663     1.81283374     0.00106113    -0.00056061     0.00048784
H        -0.96898408    -0.01074602     1.84351541     0.00128217    -0.00030997    -0.00090384
H        -0.99295345     0.05756679    -0.55804667     0.00044270     0.00023251     0.00084711
     6
  Step:     2            Position(A)                                  Velocity(au)
C        -0.03900482     0.00967441     0.01448276    -0.00002465    -0.00010987    -0.00037319
N        -0.04314786    -0.06030998     1.30686415    -0.00021815     0.00009583     0.00032672
H         0.94871390     0.05284815    -0.54175561     0.00040424     0.00060760    -0.00049061
H         0.85476733    -0.04621738     1.81567787     0.00105266    -0.00055490     0.00054343
H        -0.96153636    -0.01243866     1.83844457     0.00142226    -0.00030772    -0.00093802
H        -0.99050148     0.05883813    -0.55354659     0.00044600     0.00023256     0.00079188
     6
  Step:     3            Position(A)                                  Velocity(au)
C        -0.03913016     0.00908120     0.01232579    -0.00002023    -0.00010696    -0.00041231
N        -0.04435976    -0.05979444     1.30876214    -0.00022207     0.00009254     0.00036439
H         0.95079515     0.05617748    -0.54450349     0.00035284     0.00060826    -0.00051079
H         0.86046920    -0.04924081     1.81878239     0.00101686    -0.00054976     0.00058256
H        -0.95341530    -0.01411445     1.83324740     0.00152349    -0.00030334    -0.00094723
H        -0.98807127     0.06011253    -0.54937832     0.00043392     0.00023335     0.00072492
     6
  Step:     4            Position(A)                                  Velocity(au)
C        -0.03922646     0.00850283     0.00996641    -0.00001405    -0.00010429    -0.00044627
N        -0.04558041    -0.05929630     1.31085560    -0.00022090     0.00008932     0.00039723
H         0.95257878     0.05951084    -0.54735067     0.00029549     0.00060812    -0.00052628
H         0.86590572    -0.05223934     1.82205910     0.00095522    -0.00054485     0.00060592
H        -0.94484840    -0.01576140     1.82806886     0.00158014    -0.00029668    -0.00092842
H        -0.98574838     0.06139420    -0.54560598     0.00040615     0.00023488     0.00064647
     6
  Step:     5            Position(A)                                  Velocity(au)
C        -0.03928413     0.00793797     0.00743373    -0.00000618    -0.00010186    -0.00047467
N        -0.04678127    -0.05881528     1.31311670    -0.00021444     0.00008614     0.00042465
H         0.95403435     0.06284381    -0.55027273     0.00023314     0.00060710    -0.00053744
H         0.87094048    -0.05521351     1.82542459     0.00087001    -0.00053986     0.00061463
H        -0.93609347    -0.01736672     1.82306987     0.00158748    -0.00028766    -0.00087922
H        -0.98361898     0.06268732    -0.54229157     0.00036293     0.00023714     0.00055722
     6
  Step:     6            Position(A)                                  Velocity(au)
C        -0.03929424     0.00738529     0.00475867     0.00000322    -0.00009967    -0.00049730
N        -0.04793312    -0.05835121     1.31551454    -0.00020270     0.00008300     0.00044619
H         0.95513668     0.06617149    -0.55324714     0.00016684     0.00060516    -0.00054470
H         0.87545085    -0.05816232     1.82880242     0.00076414    -0.00053460     0.00061020
H        -0.92743168    -0.01891741     1.81842262     0.00154230    -0.00027632    -0.00079824
H        -0.98176656     0.06399592    -0.53949254     0.00030513     0.00024010     0.00045829
     6
  Step:     7            Position(A)                                  Velocity(au)
C        -0.03924882     0.00684352     0.00197308     0.00001393    -0.00009772    -0.00051412
N        -0.04900701    -0.05790394     1.31801609    -0.00018583     0.00007989     0.00046161
H         0.95586638     0.06948889    -0.55625384     0.00009768     0.00060238    -0.00054856
H         0.87933116    -0.06108379     1.83212495     0.00064098    -0.00052897     0.00059440
H        -0.91915809    -0.02040086     1.81430469     0.00144348    -0.00026281    -0.00068534
H        -0.98026845     0.06532378    -0.53725929     0.00023423     0.00024373     0.00035119
     6
  Step:     8            Position(A)                                  Velocity(au)
C        -0.03914118     0.00631138    -0.00089132     0.00002570    -0.00009601    -0.00052528
N        -0.04997531    -0.05747330     1.32058742    -0.00016420     0.00007683     0.00047090
H         0.95621010     0.07279140    -0.55927559     0.00002676     0.00059887    -0.00054962
H         0.88249487    -0.06397544     1.83533462     0.00050415    -0.00052293     0.00056920
H        -0.91156855    -0.02180558     1.81089111     0.00129237    -0.00024741    -0.00054182
H        -0.97919249     0.06667438    -0.53563313     0.00015225     0.00024795     0.00023774
     6
  Step:     9            Position(A)                                  Velocity(au)
C        -0.03896616     0.00578760    -0.00380376     0.00003824    -0.00009455    -0.00053105
N        -0.05081285    -0.05705902     1.32319490    -0.00013838     0.00007384     0.00047426
H         0.95616063     0.07607507    -0.56229831    -0.00004484     0.00059480    -0.00054847
H         0.88487555    -0.06683475     1.83838474     0.00035735    -0.00051652     0.00053661
H        -0.90494513    -0.02312180     1.80834594     0.00109303    -0.00023049    -0.00037057
H        -0.97859403     0.06805069    -0.53464467     0.00006168     0.00025268     0.00011998
     6
  Step:    10            Position(A)                                  Velocity(au)
C        -0.03872034     0.00527093    -0.00673524     0.00005123    -0.00009332    -0.00053180
N        -0.05149810    -0.05666068     1.32580643    -0.00010911     0.00007097     0.00047207
H         0.95571667     0.07933690    -0.56531128    -0.00011608     0.00059035    -0.00054575
H         0.88642730    -0.06965951     1.84123981     0.00020425    -0.00050983     0.00049870
H        -0.89954025    -0.02434204     1.80681316     0.00085228    -0.00021250    -0.00017600
H        -0.97851368     0.06945502    -0.53431277    -0.00003466     0.00025778     0.00000005
     6
  Step:    11            Position(A)                                  Velocity(au)
C        -0.03840213     0.00476016    -0.00965898     0.00006432    -0.00009231    -0.00052797
N        -0.05201420    -0.05627766     1.32839245    -0.00007733     0.00006823     0.00046485
H         0.95488257     0.08257492    -0.56830710    -0.00018600     0.00058570    -0.00054203
H         0.88712438    -0.07244811     1.84387550     0.00004841    -0.00050297     0.00045744
H        -0.89556135    -0.02546151     1.80640814     0.00057942    -0.00019394     0.00003608
H        -0.97897561     0.07088889    -0.53464409    -0.00013373     0.00026308    -0.00011986
