     6
  Step:   600            Position(A)                                  Velocity(au)
C        -0.05559746    -0.08622515    -0.08896148     0.00009867     0.00018119    -0.00077815
N        -0.00575090     0.00429203     1.33017841     0.00066352    -0.00045100     0.00115190
H         0.79791320     0.70856118    -0.38989299     0.00092470     0.00300792    -0.00692853
H         0.61275504     0.31497361     2.18452723    -0.00481915     0.00134893     0.00236742
H        -1.12077155    -0.00695817     1.70953010    -0.00206273     0.00295177     0.00022923
H        -0.76060004    -0.71814443    -0.03697422    -0.00443912    -0.00320034    -0.00240303
