6

C       -0.03575508    -0.01531159     0.02067235
N       -0.03607447    -0.00525928     1.30244856
H        0.85354498     0.10149339    -0.61815642
H        0.77999643    -0.32341157     1.83870162
H       -0.90767857    -0.17258087     1.80781612
H       -1.01143691    -0.01976092    -0.48192816
