     6
  Step:   600            Position(A)                                  Velocity(au)
C         0.11115727     0.05375295    -0.16835919     0.00002868    -0.00024074     0.00094953
N        -0.17637527    -0.10399922     1.46621360    -0.00044909     0.00060775    -0.00049544
H         1.26535312    -0.06858097    -0.47735290     0.00080101     0.00142217     0.00246067
H         0.58041019    -0.20832851     2.45843874     0.00397291    -0.00420292    -0.00329618
H        -1.11089709     0.25747419     1.74197471     0.00282353    -0.00138875    -0.00176509
H        -0.82122456     0.15430385    -1.19977639    -0.00169848    -0.00140728    -0.00182924
