    14
  Step:   600            Position(A)                                  Velocity(au)
C        -4.72140114    -0.58852097    -0.91112456    -0.00004073    -0.00029942     0.00014600
C        -4.46204087    -0.49371799     0.41392679     0.00057524     0.00038403    -0.00105426
H        -4.52373806     0.22689743    -1.60361736    -0.00064386    -0.00126628     0.00023049
H        -5.49750564    -1.37425787    -1.05367221     0.00119021     0.00051604     0.00167377
H        -4.88529981    -1.24820625     1.13446459     0.00160113     0.00148934    -0.00103649
C        -4.27659073     1.00569408     0.78677495     0.00082179     0.00014598     0.00011967
C        -3.09475332     1.48988057     0.46108455    -0.00001128     0.00003822     0.00017050
H        -5.03945828     1.74024575     1.15778163     0.00051449     0.00052717    -0.00042050
H        -2.87729922     2.43054676     0.78492042     0.00169125    -0.00000851     0.00220673
C        -2.08943106     0.70824374    -0.35759411    -0.00067974    -0.00014724     0.00037403
H        -2.44451035     0.02288359    -1.19456325     0.00046874    -0.00166568     0.00100422
N        -0.86257788     0.94973428     0.06564512    -0.00071763    -0.00005994    -0.00001226
H        -0.06241136     0.65529086    -0.43041929    -0.00119765    -0.00006855     0.00220921
H        -0.49124421     1.70852692     0.62268855    -0.00157931    -0.00013920    -0.00278882
