     6
  Step:   300            Position(A)                                  Velocity(au)
C        -0.03406537     0.00649321     0.02858801    -0.00000692     0.00001416    -0.00002535
N        -0.03327008    -0.05245212     1.28664198     0.00005255     0.00002893     0.00003755
H         0.01912153    -0.85925917    -0.63099384    -0.00164297     0.00025510    -0.00019427
H        -0.28869600     0.75594937     1.87535229    -0.00206324    -0.00076912     0.00005802
H        -0.03499579    -0.90766241     1.85647851     0.00139379     0.00023343     0.00032710
H        -0.04011715     0.99271645    -0.42907112     0.00166460    -0.00029020    -0.00041061
