12

C       -0.03646652    -0.02186657    -0.12170792
N       -0.04513338    -0.12020337     1.42002483
H        0.92068755     0.28719489    -0.51257465
H        0.83006233     0.28256532     1.81676674
H       -0.92238835     0.34566154     1.80392546
H       -0.97958916     0.34577257    -0.49895624
C       -0.03645636    -0.02292837    -0.12168838
N       -0.04501766    -0.12068753     1.41974939
H        0.92054828     0.29227170    -0.50783608
H        0.82691695     0.28684663     1.81158527
H       -0.92224879     0.34982457     1.80217709
H       -0.97817317     0.35163208    -0.49317031
