     6
  Step:     0            Position(A)                                  Velocity(au)
C        -0.03471330     0.00862422     0.00365537     0.00005546     0.00002304    -0.00005067
N        -0.05600599    -0.05797949     1.30722173    -0.00002538     0.00011522     0.00007927
H         0.96961951     0.02982103    -0.54255971    -0.00035907    -0.00040729     0.00006675
H         0.90635860    -0.08211906     1.87366648     0.00020104    -0.00050441     0.00024524
H        -0.89110797    -0.04057793     1.87856945     0.00032221    -0.00080302    -0.00081532
H        -1.00588268     0.12603503    -0.52680573    -0.00047245    -0.00016102     0.00000562
     6
  Step:     1            Position(A)                                  Velocity(au)
C        -0.03439060     0.00875344     0.00329033     0.00006224     0.00002419    -0.00008249
N        -0.05608009    -0.05735640     1.30775662    -0.00000111     0.00011275     0.00011564
H         0.96740152     0.02759842    -0.54221745    -0.00044986    -0.00040565     0.00005667
H         0.90676047    -0.08484847     1.87465905    -0.00005485    -0.00049362     0.00011726
H        -0.88954134    -0.04497146     1.87430292     0.00024208    -0.00080462    -0.00073863
H        -1.00844932     0.12518173    -0.52695689    -0.00046373    -0.00015133    -0.00005923
     6
  Step:     2            Position(A)                                  Velocity(au)
C        -0.03403262     0.00888878     0.00275333     0.00006836     0.00002530    -0.00011350
N        -0.05601814    -0.05674644     1.30848628     0.00002419     0.00011054     0.00015051
H         0.96469995     0.02538498    -0.54194003    -0.00053575    -0.00040435     0.00004273
H         0.90575879    -0.08751711     1.87494876    -0.00031070    -0.00048272    -0.00001065
H        -0.88846066    -0.04937698     1.87049205     0.00014582    -0.00080831    -0.00065034
H        -1.01095388     0.12438012    -0.52745348    -0.00045017    -0.00014225    -0.00012076
     6
  Step:     3            Position(A)                                  Velocity(au)
C        -0.03364345     0.00902993     0.00204970     0.00007365     0.00002634    -0.00014342
N        -0.05581567    -0.05614812     1.30940180     0.00005011     0.00010861     0.00018369
H         0.96154559     0.02317877    -0.54175037    -0.00061538    -0.00040337     0.00002423
H         0.90336441    -0.09012475     1.87454262    -0.00056303    -0.00047178    -0.00013629
H        -0.88794745    -0.05380664     1.86719446     0.00003599    -0.00081427    -0.00055256
H        -1.01336984     0.12362686    -0.52827683    -0.00043171    -0.00013375    -0.00017891
     6
  Step:     4            Position(A)                                  Velocity(au)
C        -0.03322795     0.00917654     0.00118640     0.00007798     0.00002731    -0.00017192
N        -0.05547061    -0.05555982     1.31049316     0.00007618     0.00010697     0.00021495
H         0.95797656     0.02097791    -0.54167526    -0.00068735    -0.00040270     0.00000046
H         0.89960739    -0.09267161     1.87345976    -0.00080810    -0.00046090    -0.00025731
H        -0.88806742    -0.05827331     1.86445500    -0.00008421    -0.00082253    -0.00044779
H        -1.01567055     0.12291884    -0.52940817    -0.00040833    -0.00012577    -0.00023365
     6
  Step:     5            Position(A)                                  Velocity(au)
C        -0.03279179     0.00932817     0.00017203     0.00008119     0.00002819    -0.00019870
N        -0.05498363    -0.05497986     1.31174937     0.00010185     0.00010562     0.00024409
H         0.95403870     0.01878063    -0.54174532    -0.00075017    -0.00040230    -0.00002926
H         0.89453868    -0.09515853     1.87173241    -0.00104174    -0.00045018    -0.00037115
H        -0.88886711    -0.06278996     1.86230393    -0.00021098    -0.00083302    -0.00033883
H        -1.01782946     0.12225325    -0.53082870    -0.00038006    -0.00011825    -0.00028496
     6
  Step:     6            Position(A)                                  Velocity(au)
C        -0.03234141     0.00948434    -0.00098315     0.00008315     0.00002897    -0.00022342
N        -0.05435855    -0.05440654     1.31315833     0.00012649     0.00010457     0.00027089
H         0.94978567     0.01658534    -0.54199471    -0.00080236    -0.00040210    -0.00006553
H         0.88823285    -0.09758702     1.86940729    -0.00125921    -0.00043976    -0.00047492
H        -0.89037106    -0.06736888     1.86075540    -0.00034007    -0.00084553    -0.00022875
H        -1.01982036     0.12162765    -0.53251959    -0.00034699    -0.00011113    -0.00033279
     6
  Step:     7            Position(A)                                  Velocity(au)
C        -0.03188402     0.00964448    -0.00226718     0.00008371     0.00002964    -0.00024577
N        -0.05360270    -0.05383817     1.31470678     0.00014941     0.00010381     0.00029509
H         0.94527897     0.01439073    -0.54246071    -0.00084249    -0.00040205    -0.00010884
H         0.88079130    -0.09995956     1.86654749    -0.00145517    -0.00042983    -0.00056542
H        -0.89257981    -0.07202099     1.85980658    -0.00046693    -0.00085971    -0.00012071
H        -1.02161770     0.12104001    -0.53446189    -0.00030927    -0.00010432    -0.00037707
     6
  Step:     8            Position(A)                                  Velocity(au)
C        -0.03142751     0.00980797    -0.00366645     0.00008275     0.00003019    -0.00026543
N        -0.05272727    -0.05327312     1.31638013     0.00016989     0.00010333     0.00031643
H         0.94058745     0.01219579    -0.54318304    -0.00086927    -0.00040210    -0.00015954
H         0.87234548    -0.10227987     1.86323413    -0.00162375    -0.00042067    -0.00063914
H        -0.89546890    -0.07675510     1.85943749    -0.00058692    -0.00087511    -0.00001786
H        -1.02319694     0.12048874    -0.53663644    -0.00026715    -0.00009774    -0.00041776
     6
  Step:     9            Position(A)                                  Velocity(au)
C        -0.03098033     0.00997411    -0.00516573     0.00008021     0.00003059    -0.00028212
N        -0.05174747    -0.05270984     1.31816226     0.00018717     0.00010310     0.00033461
H         0.93578645     0.00999980    -0.54420290    -0.00088164    -0.00040219    -0.00021776
H         0.86305982    -0.10455333     1.85956801    -0.00175868    -0.00041263    -0.00069237
H        -0.89898902    -0.08157726     1.85961158    -0.00069559    -0.00089118     0.00007686
H        -1.02453504     0.11997270    -0.53902382    -0.00022098    -0.00009132    -0.00045476
     6
  Step:    10            Position(A)                                  Velocity(au)
C        -0.03055132     0.01014216    -0.00674835     0.00007602     0.00003085    -0.00029559
N        -0.05068258    -0.05214685     1.32003542     0.00020053     0.00010312     0.00034932
H         0.93095642     0.00780227    -0.54556185    -0.00087884    -0.00040229    -0.00028341
H         0.85313356    -0.10678746     1.85567061    -0.00185365    -0.00040614    -0.00072138
H        -0.90306758    -0.08649034     1.86027716    -0.00078891    -0.00090731     0.00016085
H        -1.02561092     0.11949116    -0.54160426    -0.00017119    -0.00008499    -0.00048803
     6
  Step:    11            Position(A)                                  Velocity(au)
C        -0.03014949     0.01031132    -0.00839639     0.00007018     0.00003096    -0.00030566
N        -0.04955575    -0.05158274     1.32198020     0.00020931     0.00010339     0.00036029
H         0.92618106     0.00560290    -0.54730050    -0.00086060    -0.00040241    -0.00035616
H         0.84280023    -0.10899232     1.85168367    -0.00190270    -0.00040174    -0.00072263
H        -0.90761146    -0.09149380     1.86136958    -0.00086348    -0.00092292     0.00023196
H        -1.02640602     0.11904382    -0.54435777    -0.00011831    -0.00007868    -0.00051754
     6
  Step:    12            Position(A)                                  Velocity(au)
C        -0.02978376     0.01048078    -0.01009112     0.00006277     0.00003092    -0.00031222
N        -0.04839348    -0.05101614     1.32397564     0.00021298     0.00010390     0.00036727
H         0.92154457     0.00340138    -0.54945695    -0.00082716    -0.00040256    -0.00043537
H         0.83232493    -0.11118098     1.84776762    -0.00190083    -0.00039998    -0.00069317
H        -0.91251092    -0.09658377     1.86281400    -0.00091676    -0.00093746     0.00028867
H        -1.02690481     0.11863070    -0.54726428    -0.00006297    -0.00007234    -0.00054332
     6
  Step:    13            Position(A)                                  Velocity(au)
C        -0.02946257     0.01064971    -0.01181337     0.00005388     0.00003073    -0.00031529
N        -0.04722487    -0.05044566     1.32599961     0.00021119     0.00010466     0.00037013
H         0.91712860     0.00119729    -0.55206516    -0.00077938    -0.00040281    -0.00052014
H         0.82199764    -0.11336971     1.84409765    -0.00184454    -0.00040148    -0.00063089
H        -0.91764450    -0.10175338     1.86452877    -0.00094719    -0.00095049     0.00033007
H        -1.02709519     0.11825218    -0.55030389    -0.00000584    -0.00006591    -0.00056548
     6
  Step:    14            Position(A)                                  Velocity(au)
C        -0.02919366     0.01081733    -0.01354413     0.00004370     0.00003040    -0.00031495
N        -0.04608054    -0.04986988     1.32802929     0.00020379     0.00010569     0.00036884
H         0.91300891    -0.00101009    -0.55515345    -0.00071867    -0.00040320    -0.00060935
H         0.81212379    -0.11557791     1.84085821    -0.00173245    -0.00040676    -0.00053492
H        -0.92288441    -0.10699339     1.86642890    -0.00095412    -0.00096169     0.00035589
H        -1.02696879     0.11790890    -0.55345730     0.00005236    -0.00005938    -0.00058418
     6
  Step:    15            Position(A)                                  Velocity(au)
C        -0.02898362     0.01098287    -0.01526502     0.00003245     0.00002993    -0.00031138
N        -0.04499138    -0.04928732     1.33004192     0.00019090     0.00010701     0.00036350
H         0.90925236    -0.00322161    -0.55874332    -0.00064698    -0.00040385    -0.00070165
H         0.80301080    -0.11782758     1.83823514    -0.00156574    -0.00041626    -0.00040591
H        -0.92810115    -0.11229305     1.86842914    -0.00093791    -0.00097091     0.00036648
H        -1.02652131     0.11760139    -0.55670626     0.00011094    -0.00005272    -0.00059969
     6
  Step:    16            Position(A)                                  Velocity(au)
C        -0.02883778     0.01114561    -0.01695887     0.00002038     0.00002935    -0.00030487
N        -0.04398700    -0.04869642     1.33201555     0.00017290     0.00010861     0.00035435
H         0.90591384    -0.00543891    -0.56284809    -0.00056671    -0.00040489    -0.00079556
H         0.79495324    -0.12014278     1.83640687    -0.00134838    -0.00043023    -0.00024615
H        -0.93316993    -0.11764080     1.87044784    -0.00089979    -0.00097811     0.00036272
H        -1.02575214     0.11733075    -0.56003380     0.00016924    -0.00004585    -0.00061231
     6
  Step:    17            Position(A)                                  Velocity(au)
C        -0.02875996     0.01130490    -0.01861011     0.00000778     0.00002865    -0.00029573
N        -0.04309432    -0.04809561     1.33392995     0.00015039     0.00011051     0.00034179
H         0.90303432    -0.00766421    -0.56747240    -0.00048050    -0.00040643    -0.00088947
H         0.78821607    -0.12254818     1.83553435    -0.00108727    -0.00044864    -0.00005973
H        -0.93797389    -0.12302515     1.87240905    -0.00084153    -0.00098339     0.00034587
H        -1.02466432     0.11709833    -0.56342464     0.00022664    -0.00003872    -0.00062236
     6
  Step:    18            Position(A)                                  Velocity(au)
C        -0.02875236     0.01146012    -0.02020501    -0.00000506     0.00002785    -0.00028430
N        -0.04233623    -0.04748336     1.33576733     0.00012421     0.00011268     0.00032632
H         0.90063951    -0.00990022    -0.57261162    -0.00039116    -0.00040853    -0.00098170
H         0.78301850    -0.12506742     1.83575121    -0.00079195    -0.00047112     0.00014761
H        -0.94240724    -0.12843532     1.87424435    -0.00076533    -0.00098691     0.00031740
H        -1.02326438     0.11690577    -0.56686535     0.00028253    -0.00003126    -0.00063020
