14

C       -5.37174169     0.06672268     0.88267298
C       -4.52801860    -0.60401189     0.08032883
H       -5.19205110     1.01443337     1.44659435
H       -6.14068884    -0.71537287     1.24834987
H       -5.10697518    -1.41986427    -0.41683599
C       -3.45385488    -0.38302172    -0.92117978
C       -2.36295544     0.38452399    -0.71711621
H       -3.58943927    -1.17869014    -1.70168012
H       -1.48684549     0.52136788    -1.29143111
C       -2.34963248     1.37036365     0.28185714
H       -3.27220682     1.45204203     0.95644444
N       -1.29758798     2.04007924     0.59602606
H       -1.31955216     2.89946461     1.30134577
H       -0.55581936     1.77333660    -0.12315983
