14

C       -4.82172977    -0.70277006    -1.02115890
C       -4.08291038    -0.67926680     0.09462566
H       -5.44625955     0.06644757    -1.48671097
H       -4.88516446    -1.61932608    -1.61163843
H       -3.58327130    -1.59912842     0.32438958
C       -3.98455630     0.52727390     0.97220062
C       -2.74840923     1.19442796     1.30448340
H       -4.53419363     0.51690861     1.91263597
H       -2.82574320     1.85359509     2.16691460
C       -1.74955525     1.55624793     0.26748238
H       -0.98480306     2.34187858     0.67193301
N       -1.92218237     1.19151586    -0.96066751
H       -1.29407609     1.51829180    -1.67155665
H       -2.52235500     0.41289433    -1.21798722
