     6
  Step:   120            Position(A)                                  Velocity(au)
C        -0.03525407     0.04993874    -0.17145091     0.00004353     0.00010174     0.00028682
N        -0.04938459     0.00378573     1.48194587    -0.00002601     0.00003333    -0.00022885
H         0.79803976    -0.54693937    -0.61697024    -0.00099781    -0.00187062     0.00079344
H         0.86220930    -0.17690322     1.95746842    -0.00032424     0.00108168    -0.00024154
H        -0.77498529    -0.71586899     1.72771163     0.00103237    -0.00160817    -0.00092614
H        -0.99183459     0.12226035    -0.72679943     0.00013243     0.00072161     0.00013670
