     6
  Step:   120            Position(A)                                  Velocity(au)
C        -0.04575644    -0.06119755    -0.00860522    -0.00016571    -0.00011924    -0.00035273
N        -0.03786525    -0.07144206     1.33188339     0.00006591     0.00015835     0.00024420
H         0.86192974     0.22937883    -0.64872576     0.00098668    -0.00061902     0.00035751
H         0.78904105     0.28010016     1.83988263    -0.00005970     0.00033840     0.00025284
H        -0.96268175    -0.08387387     1.82952783     0.00000434    -0.00162066    -0.00015511
H        -0.82981057     0.62663184    -0.53441106     0.00012748     0.00112170     0.00035439
