     6
  Step:   120            Position(A)                                  Velocity(au)
C        -0.04740515    -0.00710254    -0.02469655    -0.00006338    -0.00001572    -0.00008144
N        -0.03076191    -0.07536009     1.34673536     0.00003034     0.00006546    -0.00005047
H         0.83663358    -0.29658595    -0.66952626    -0.00039699    -0.00144880     0.00040866
H         0.70898757     0.44854656     1.86139358    -0.00100633     0.00111370     0.00024388
H        -0.93587729    -0.31197628     1.85220612     0.00071256    -0.00165850     0.00022366
H        -0.83034903     0.62212250    -0.57247244     0.00102439     0.00127126     0.00079564
