     6
  Step:   120            Position(A)                                  Velocity(au)
C        -0.03876470    -0.02598949    -0.11772644     0.00005437    -0.00002980     0.00021746
N        -0.04741837    -0.13447826     1.41599918    -0.00000659    -0.00008598    -0.00018096
H         0.93473039     0.33932903    -0.46079357    -0.00001223     0.00001280     0.00035939
H         0.80929630     0.34209187     1.78149877    -0.00017667     0.00063479    -0.00085307
H        -0.86053723     0.41385718     1.75257300    -0.00018840     0.00054772    -0.00018290
H        -0.97556351     0.41339837    -0.45564071    -0.00017905     0.00035457     0.00059997
