     6
  Step:   300            Position(A)                                  Velocity(au)
C        -0.04006905     0.01649387     0.01309011    -0.00000912     0.00004158    -0.00002961
N        -0.04299958    -0.06013645     1.30030614    -0.00001299    -0.00008619     0.00002987
H         0.90905513    -0.05707923    -0.51804608    -0.00008159     0.00015469    -0.00012196
H         0.82805833    -0.01388838     1.82956481    -0.00001869     0.00019135     0.00007196
H        -0.89501194    -0.13106178     1.87101709     0.00017701     0.00054764     0.00043220
H        -0.98004406     0.17136891    -0.51600178     0.00021246    -0.00019139    -0.00044443
