12

C       -0.03434638    -0.02468502    -0.11923390
N       -0.03830269    -0.12159423     1.42683817
H        0.89990049    -0.00717193    -0.70963844
H        0.60772904     0.66610253     1.73795749
H       -0.94376589    -0.02848793     1.93388304
H       -0.83526804     0.68364812    -0.47719866
C       -0.03450334    -0.02465148    -0.11610914
N       -0.03809045    -0.12153286     1.42424122
H        0.89897686    -0.01572992    -0.70963209
H        0.60107663     0.67394205     1.73389962
H       -0.94171085    -0.03566357     1.93238186
H       -0.83082605     0.69028971    -0.47279269
