12

C       -0.03522741     0.02304801    -0.09603151
N       -0.03865938    -0.03671859     1.40574794
H        0.85071846     0.41283425    -0.66122094
H        0.63762163    -0.72531710     1.84890564
H       -0.85233542     0.28911892     1.98300471
H       -0.89196671    -0.41081294    -0.66908642
C       -0.03542421     0.02297959    -0.09211748
N       -0.03822136    -0.03670453     1.40245149
H        0.84732813     0.42080444    -0.65926385
H        0.62807257    -0.73155582     1.84436533
H       -0.84853076     0.29715345     1.98223572
H       -0.88657384    -0.41995895    -0.66656536
