6

C       -0.03460849     0.05635768    -0.12240432
N       -0.03931447    -0.00279864     1.43620521
H        0.91444591    -0.28510728    -0.61186206
H        0.79035318    -0.49391186     1.81630246
H       -0.94053083    -0.37145025     1.76727988
H       -1.01847396    -0.15197639    -0.57911930
