     6
  Step:   120            Position(A)                                  Velocity(au)
C        -0.04579683    -0.02168779    -0.12532122     0.00001213     0.00001239     0.00050574
N        -0.04989863    -0.13178461     1.43198740    -0.00002145     0.00004395    -0.00041159
H         0.80070687     0.64813731    -0.42383258    -0.00083263     0.00113161     0.00070776
H         0.85838226     0.01237899     1.93155060    -0.00026823    -0.00155778    -0.00016571
H        -0.65985456     0.69314070     1.71454363     0.00103805     0.00118812    -0.00079697
H        -0.97305737     0.06634333    -0.73626988     0.00021644    -0.00152032    -0.00005184
