6

C       -0.03314965    -0.00167326     0.02522274
N       -0.03410373    -0.04293808     1.29067911
H       -0.05819889    -0.87242553    -0.61578699
H       -0.33059789     0.74540379     1.87128209
H        0.01313471    -0.89230928     1.86418531
H        0.03163537     0.96617151    -0.46394204
