     6
  Step:   120            Position(A)                                  Velocity(au)
C        -0.01884234    -0.04449182    -0.02872858     0.00011124    -0.00005610    -0.00002179
N        -0.04986666    -0.04313588     1.34545486     0.00002652     0.00002702    -0.00011781
H         0.75717499     0.62135062    -0.54913065    -0.00110568     0.00132557     0.00080037
H         0.76270494    -0.48322462     1.85148463    -0.00121701    -0.00120951     0.00020873
H        -0.84232408     0.36979041     1.88786551     0.00064597     0.00124731     0.00041796
H        -0.97300975    -0.04811975    -0.65276350    -0.00001747    -0.00107037     0.00046971
