6

C       -0.04448467     0.03677729    -0.02181948
N       -0.03522647    -0.08065713     1.33130318
H        0.94081091     0.00634774    -0.50788731
H        0.79042952    -0.02175474     1.86454783
H       -0.92508134     0.03030214     1.93378852
H       -0.99949769    -0.00208461    -0.63865826
