     6
  Step:   120            Position(A)                                  Velocity(au)
C        -0.02288632     0.07101905     0.01635408     0.00019471     0.00002299    -0.00018395
N        -0.05437034    -0.03324735     1.31651512    -0.00011432    -0.00011609     0.00010436
H         0.66951652    -0.66346947    -0.55132062    -0.00071088    -0.00116213     0.00013868
H         0.81427568     0.12813804     1.89130291    -0.00028029     0.00186467    -0.00014954
H        -0.76032719    -0.67818618     1.74658796     0.00068396    -0.00082311     0.00023091
H        -0.90812736     0.15949152    -0.68416254    -0.00042428     0.00145988     0.00052170
