6

C   -0.03755385    0.00772091    0.01391737    0.00000792   -0.00016850    0.00018209
N   -0.04419794   -0.04406775    1.30729646    0.00022971    0.00012776   -0.00012998
H    0.91926327    0.03454928   -0.48668972   -0.00066962    0.00055185    0.00017809
H    0.86972555   -0.20006816    1.80010556   -0.00212536   -0.00020932   -0.00125461
H   -0.93466469   -0.07535773    1.84764152   -0.00105985   -0.00054850    0.00028748
H   -1.00557782    0.09147642   -0.60150815    0.00056829    0.00043848    0.00042552
