6

C   -0.03093239    0.01795070    0.01382083   -0.00001407    0.00011840   -0.00017500
N   -0.05083159   -0.05070052    1.30253359    0.00001712   -0.00013097    0.00009051
H    0.91905776   -0.04918467   -0.55528379    0.00059844   -0.00019528   -0.00048505
H    0.86562348   -0.17608783    1.87723225    0.00013317    0.00031400    0.00042357
H   -0.89313900   -0.02496067    1.82453753   -0.00067099    0.00071282    0.00046140
H   -1.02951400    0.07110567   -0.51959951   -0.00013084   -0.00042242    0.00042770
