14

C       -6.08199517    -0.81209793     0.21917681
C       -4.89785180    -0.60170383    -0.16388949
H       -6.59702095    -0.22443497     0.91814448
H       -6.53147330    -1.70099739    -0.13385548
H       -4.51729789    -1.38594777    -0.79205189
C       -3.78024009     0.32189555    -0.22457106
C       -2.51978516     0.44335732     0.24292527
H       -3.93606062     1.00491080    -1.06321551
H       -2.35832443    -0.09867670     1.15775195
C       -1.66812850     1.53762978    -0.13164523
H       -2.08745288     2.23470114    -0.70436868
N       -0.56717397     2.00467639     0.37411532
H       -0.30241467     2.97046844     0.15322901
H        0.02420640     1.38922320     0.97068562
