     6
  Step:   300            Position(A)                                  Velocity(au)
C        -0.06306548     0.00425410     0.02334323     0.00008738    -0.00012567     0.00013655
N        -0.01747773    -0.05098741     1.29413295    -0.00030761     0.00004053    -0.00018953
H         0.22069589     0.96867820    -0.40968640    -0.00097377     0.00045969     0.00078782
H        -0.03192607    -0.94592760     1.78371438     0.00057715     0.00046669     0.00055336
H        -0.04024468     0.82856623     1.82964786     0.00270487    -0.00002123     0.00036218
H        -0.36709586    -0.86324585    -0.57350859     0.00092516     0.00002905    -0.00069672
