6

C       -0.02486749     0.00234404     0.02580988
N       -0.03894101    -0.05397121     1.28998255
H        0.16473391    -0.85667996    -0.62656447
H       -0.16812740     0.80879213     1.83574964
H       -0.21388970    -0.89996470     1.83806217
H       -0.15818472     1.00013347    -0.38882845
