     6
  Step:   300            Position(A)                                  Velocity(au)
C        -0.03559921     0.03287320     0.01947179     0.00010056    -0.00006573    -0.00007273
N        -0.05101704    -0.08415984     1.29836975     0.00001312     0.00017250     0.00001751
H         0.92049438     0.18176327    -0.46120837     0.00005937     0.00005779    -0.00015955
H         0.83358205    -0.21924718     1.80048503    -0.00015892    -0.00084381    -0.00004969
H        -0.87712430     0.23004925     1.81392994    -0.00068379    -0.00091844    -0.00008765
H        -0.95674071    -0.08454658    -0.53577576    -0.00059726     0.00009052     0.00092016
