     6
  Step:   300            Position(A)                                  Velocity(au)
C        -0.04150651     0.01560807     0.01712043    -0.00000981    -0.00003307     0.00014439
N        -0.04081212    -0.04957829     1.29896123     0.00000797     0.00004258    -0.00009712
H         0.88810990     0.00741177    -0.54202047    -0.00028630    -0.00095216    -0.00019350
H         0.81222040    -0.17969547     1.84881198    -0.00001051     0.00095559     0.00006760
H        -0.88502036    -0.07102904     1.87867790    -0.00000281    -0.00127534     0.00001355
H        -0.96652850     0.07650622    -0.54825959     0.00030571     0.00107432    -0.00025855
