6

C       -0.02941669     0.00140816     0.02055202
N       -0.03092586    -0.01970793     1.31617979
H        0.74036595     0.48681728    -0.64402651
H        0.59852855    -0.72443411     1.77490173
H       -0.90022558     0.16268923     1.88660812
H       -0.87132288    -0.33776782    -0.66042679
