14

C       -5.47391106    -0.65626180    -0.79546780
C       -4.53574209    -0.64961381     0.13828406
H       -5.75382002     0.36162897    -1.12767779
H       -6.04377902    -1.54183066    -1.17075949
H       -4.45363472    -1.61059670     0.60852997
C       -4.06479522     0.50070178     0.90943297
C       -2.70752124     0.97152827     0.77889637
H       -4.72927493     0.73824672     1.71826538
H       -2.55867893     1.72810466     1.67835318
C       -1.84690963     0.88261263    -0.32664854
H       -1.68882798    -0.00796652    -1.08841131
N       -0.80491586     1.84652906    -0.24389114
H       -0.66517341     2.30875527    -1.19675608
H       -0.91142573     2.50632877     0.58689413
