6

C       -0.04394181     0.00278514     0.01376175
N       -0.04058837    -0.03784377     1.30092167
H        0.90264859     0.01956515    -0.52277839
H        0.82216325    -0.21751730     1.82356241
H       -0.87310197     0.00212208     1.89578270
H       -0.97698632     0.01874314    -0.54655483
