14

C       -5.28799992    -1.42295288     0.23309912
C       -5.23930258    -0.17267337    -0.23556665
H       -4.85321055    -1.79342458     1.16599178
H       -6.01913211    -2.10676604    -0.21823429
H       -5.64319087     0.17180685    -1.17232093
C       -4.00899237     0.48946895     0.42594425
C       -2.86862285     0.89091191    -0.30297560
H       -4.04334041     0.21596574     1.51027773
H       -2.87400293     1.26880733    -1.30002477
C       -1.61678762     1.32163656     0.46857152
H       -1.59508492     1.20219178     1.52779813
N       -0.56142553     1.87317435    -0.21083087
H        0.25879286     2.01791225     0.46812641
H       -0.73922460     2.44973484    -1.05786136
