     6
  Step:   120            Position(A)                                  Velocity(au)
C        -0.02667463    -0.03030180    -0.03023142     0.00005840    -0.00008408    -0.00001596
N        -0.05154808    -0.06622243     1.34990884    -0.00001355     0.00009202    -0.00009345
H         0.80027737     0.57453719    -0.57141768    -0.00071805     0.00151229     0.00092005
H         0.81535450    -0.33409191     1.85577441    -0.00075588    -0.00155848     0.00018442
H        -0.83083741     0.42239094     1.88199341     0.00098680     0.00095377     0.00011237
H        -0.96354733    -0.05128926    -0.67288987    -0.00002044    -0.00118450     0.00027205
