14

C   -5.96724880   -0.51140263   -0.19466751   -0.00020740   -0.00014897   -0.00007696
C   -4.74783994   -0.80640209    0.15358316   -0.00001222    0.00003389   -0.00000608
H   -6.32155439    0.46245012   -0.51610070    0.00018430   -0.00065123    0.00049470
H   -6.71563358   -1.20183329    0.00515982   -0.00040287    0.00024112   -0.00059042
H   -4.43592890   -1.82273022    0.49770814    0.00041439   -0.00020679    0.00048970
C   -3.80252433    0.24583160    0.00062225   -0.00000327    0.00012710    0.00009184
C   -2.44328227    0.35694725    0.28083860   -0.00023897   -0.00023372   -0.00004498
H   -4.38966714    1.12241533   -0.51186023   -0.00014064    0.00048706   -0.00004046
H   -1.92685750   -0.45840107    0.79694748   -0.00002234    0.00010309    0.00019612
C   -1.92452981    1.61180165    0.04215313    0.00024442   -0.00001554    0.00006850
H   -2.57124699    2.41022201   -0.47733020    0.00022119   -0.00003013   -0.00043181
N   -0.61261118    1.95318592    0.10380413    0.00011743    0.00019746    0.00006396
H   -0.26222172    2.91700638   -0.11041136    0.00025363   -0.00047485   -0.00015909
H    0.20260784    1.38356164    0.52052501    0.00045143    0.00061477   -0.00123260
