6

C       -0.05788524     0.02518879     0.02438335
N       -0.02260818    -0.06001356     1.29299898
H        0.13395269    -0.91233315    -0.50899933
H        0.03944718     0.77777006     1.87292448
H       -0.11742896    -0.98280849     1.74278705
H       -0.26499803     0.98140352    -0.47318769
