6

C       -0.02611034     0.00024775     0.02952040
N       -0.03150059    -0.05125566     1.28682153
H        0.06844677    -0.84876742    -0.64527058
H       -0.31372375     0.77494495     1.84620200
H       -0.17277583    -0.88251039     1.86803318
H       -0.04599311     0.99586993    -0.41081815
