6

C       -0.05285068     0.01341235     0.01451398
N       -0.02970578    -0.05871365     1.30125247
H        0.25465478     0.96471155    -0.41248355
H        0.02290993    -0.95380619     1.79232950
H       -0.06989016     0.82159888     1.82300507
H       -0.37803835    -0.84620900    -0.56642076
