14

C       -5.78949776    -0.83746922    -0.09699972
C       -4.69388551    -0.33696491    -0.53654899
H       -6.62349290    -0.53400675     0.56885775
H       -6.15243456    -1.73544176    -0.59175385
H       -4.07431749    -0.62487025    -1.49001988
C       -3.86405995     0.34532931     0.51679935
C       -2.64386568     0.73975040     0.76603312
H       -4.46251522     0.04675303     1.32033946
H       -2.04042849     1.12029787     1.59764759
C       -1.85952975     1.31682129    -0.29616085
H       -2.02862755     1.75452578    -1.27079807
N       -0.69051496     1.76576098     0.03209031
H       -0.02577375     2.15156768    -0.64919149
H       -0.34278646     1.29825938     0.87556788
