    14
  Step:   600            Position(A)                                  Velocity(au)
C        -4.95364624    -0.05340102     0.81139596    -0.00032271    -0.00056193    -0.00010426
C        -4.38462549    -0.71281953    -0.14753479     0.00009844     0.00004634     0.00012094
H        -5.06202886     1.02743046     0.95706606     0.00080059    -0.00113327    -0.00096237
H        -5.56936982    -0.46646093     1.61884287     0.00052464    -0.00051254     0.00062174
H        -4.57329985    -1.81714747    -0.41339772     0.00200253    -0.00160863     0.00428523
C        -3.86783378     0.44900889    -1.13654086    -0.00019792     0.00051669     0.00024105
C        -2.88480420     1.25066421    -0.73375786    -0.00017516     0.00072370    -0.00067648
H        -4.52723969     0.41162870    -2.04272681     0.00035683    -0.00141732    -0.00115936
H        -2.46971581     2.09247177    -1.24064696    -0.00062645    -0.00057739    -0.00107004
C        -2.36079562     1.02174237     0.60924818     0.00070737     0.00051554    -0.00030831
H        -3.13247796     0.99113425     1.50227504    -0.00344629     0.00166873     0.00102854
N        -1.00116099     1.08755929     0.74246538    -0.00012637    -0.00056677     0.00037992
H        -0.40596856     0.77394629     1.56565528     0.00076458    -0.00148308     0.00088741
H        -0.44823122     1.21609125    -0.13492875     0.00006889    -0.00184058    -0.00024709
