     6
  Step:   120            Position(A)                                  Velocity(au)
C        -0.03435870     0.03108096    -0.17683171    -0.00002147    -0.00014331     0.00038692
N        -0.03469865    -0.11090464     1.47195971     0.00007557     0.00000099    -0.00029689
H         0.88283234    -0.22836171    -0.73264852    -0.00043411    -0.00096050     0.00009260
H         0.71456802     0.49369237     1.95530753    -0.00143365     0.00169581    -0.00063614
H        -0.95010997    -0.24610986     1.92960330     0.00043136    -0.00125325    -0.00039118
H        -0.96863259     0.48181538    -0.60795546     0.00064210     0.00221199     0.00044983
