6

C   -0.03041840    0.02226081    0.01521708    0.00004795   -0.00001859    0.00025627
N   -0.05023082   -0.04492944    1.29561251   -0.00007980    0.00003005   -0.00029626
H    0.88304237   -0.03364460   -0.52259006   -0.00038664    0.00009754    0.00060098
H    0.84619127   -0.21842400    1.89859980    0.00033000   -0.00023654    0.00036046
H   -0.87666504   -0.08717653    1.83756379    0.00076500    0.00002085    0.00035569
H   -1.00501368    0.02856064   -0.50714688   -0.00017083   -0.00007800   -0.00025391
