12

C       -0.03327069     0.06997348    -0.16812945
N       -0.03528067     0.01078777     1.48299165
H        0.93246204    -0.03423476    -0.71902680
H        0.58148511    -0.85581615     1.63308511
H       -0.95477400    -0.22156395     1.91076708
H       -0.88538204    -0.54186867    -0.53752349
C       -0.03338053     0.06973868    -0.16637394
N       -0.03482011     0.01070179     1.48138901
H        0.93244771    -0.02596181    -0.71909210
H        0.57368650    -0.86025221     1.62818455
H       -0.95643534    -0.21454895     1.91264176
H       -0.88099898    -0.54872779    -0.53308024
