6

C       -0.04314254    -0.02172559    -0.08304424
N       -0.02169603    -0.06108955     1.39666275
H       -0.00667243     1.37623150    -0.59082846
H       -0.68114457    -0.83812879     1.75722109
H        0.34402210     0.79243477     1.76666546
H       -0.05325698    -0.89261995    -0.46003448
