6

C       -0.03292884     0.01901952     0.01492732
N       -0.04973734    -0.05735604     1.30078395
H        0.10374829     0.96576184    -0.49538624
H       -0.17894699    -0.93940130     1.80458188
H        0.09186553     0.74842354     1.91828424
H       -0.14603678    -0.87418107    -0.58945570
