6

C       -0.03516217     0.01799160    -0.05709727
N       -0.03755549    -0.03842104     1.37194333
H        0.80055011     0.48849047    -0.63785440
H        0.58485245    -0.75826223     1.83984682
H       -0.80222304     0.36801733     1.96597579
H       -0.85525926    -0.44851184    -0.66054642
