14

C   -5.98474164   -0.94184253   -0.09590787   -0.00022862   -0.00028904   -0.00006900
C   -4.65872725   -0.65313151    0.11702877    0.00016445    0.00043988   -0.00009913
H   -6.70411802   -0.28055845   -0.49540693   -0.00013973   -0.00006184    0.00082386
H   -6.26501933   -1.97707317    0.15709914   -0.00025401    0.00013694    0.00074424
H   -4.07896131   -1.55722448    0.48150614    0.00004569    0.00005269    0.00001837
C   -3.99529131    0.56216784   -0.06397232    0.00001635   -0.00010971   -0.00013701
C   -2.64293341    0.66017849    0.18193114   -0.00002484   -0.00002813    0.00012572
H   -4.64087001    1.43842298   -0.45943415   -0.00093568    0.00027281   -0.00000772
H   -2.08745575   -0.27328205    0.35357845    0.00024306   -0.00037927   -0.00012840
C   -1.75491896    1.80084473    0.01846407    0.00022532   -0.00006328    0.00005677
H   -2.23179544    2.80861414   -0.26011004    0.00053371   -0.00136333    0.00006510
N   -0.51739992    1.61185896    0.20678953   -0.00009463    0.00015731    0.00013954
H    0.14913110    2.35280899    0.08096013   -0.00001083    0.00013714   -0.00096586
H   -0.08294525    0.71150018    0.40466081    0.00001366   -0.00038201   -0.00102715
