12

C       -0.04366832    -0.04361176    -0.03085424
N       -0.04308121    -0.04841002     1.35758327
H        0.90695218     0.15640562    -0.65280289
H        0.87672831     0.02419126     1.84476136
H       -0.96469798    -0.11849941     1.83936204
H       -0.91290137     0.46053203    -0.63708612
C       -0.04400307    -0.04477532    -0.03200213
N       -0.04329184    -0.04779981     1.35795775
H        0.90850093     0.15712464    -0.65009609
H        0.87794670     0.02645666     1.84693292
H       -0.96198740    -0.12317198     1.83923807
H       -0.91146307     0.46760561    -0.63336595
