12

C       -0.03487957     0.01849666    -0.05838558
N       -0.03867462    -0.03865655     1.37368804
H        0.81448061     0.46068318    -0.64598030
H        0.61203352    -0.73331967     1.84498911
H       -0.81686502     0.34251282     1.96625623
H       -0.86954383    -0.42288786    -0.66673714
C       -0.03504545     0.01838675    -0.05444319
N       -0.03833009    -0.03869272     1.37030722
H        0.81042011     0.46843376    -0.64351394
H        0.60323666    -0.73897847     1.84097558
H       -0.81233118     0.35054194     1.96515501
H       -0.86403144    -0.43119647    -0.66408545
