6

C       -0.03504545     0.01838675    -0.05444319
N       -0.03833009    -0.03869272     1.37030722
H        0.81042011     0.46843376    -0.64351394
H        0.60323666    -0.73897847     1.84097558
H       -0.81233118     0.35054194     1.96515501
H       -0.86403144    -0.43119647    -0.66408545
