6

C       -0.04612032     0.01978389     0.02789827
N       -0.02607501    -0.05976610     1.29340498
H        0.22701976     0.93908237    -0.50060038
H       -0.08971584    -0.94661796     1.79545944
H       -0.12164940     0.77413840     1.88247455
H       -0.31666967    -0.84160074    -0.59135052
