     6
  Step:   120            Position(A)                                  Velocity(au)
C        -0.03403037     0.06609995    -0.22390415     0.00001190     0.00013470     0.00005207
N        -0.03547305     0.00594633     1.52968556    -0.00000191     0.00016515     0.00004330
H         0.92436124    -0.16186808    -0.70714742     0.00017268    -0.00025914     0.00014981
H         0.71168819    -0.66928120     1.78929777    -0.00071868    -0.00171704    -0.00116354
H        -0.95936186    -0.36943948     1.86646158     0.00048333    -0.00024553    -0.00058970
H        -0.99115414    -0.33949771    -0.64556028    -0.00005264    -0.00167843     0.00038127
