14

C       -5.69680736    -0.54342910    -0.50572255
C       -4.82830268    -0.33740140     0.52368175
H       -5.61130612    -0.52580911    -1.56781425
H       -6.66702089    -0.96179195    -0.25582009
H       -5.27029205    -0.29742585     1.50582472
C       -3.49753344     0.34799843     0.64051311
C       -3.07083531     1.12283161    -0.49257097
H       -3.08938001     0.51485572     1.70102370
H       -3.61056610     0.98972910    -1.43849685
C       -1.80353818     1.62109890     0.01987430
H       -2.04546395     2.25797375     0.86934571
N       -0.59113390     0.95528586     0.11599776
H       -0.03372504     0.70985954     0.95571298
H       -0.25305848     0.33096663    -0.58179344
