     6
  Step:   120            Position(A)                                  Velocity(au)
C        -0.03640982    -0.03081089    -0.00838015     0.00008768    -0.00000382     0.00045289
N        -0.05258995    -0.08675187     1.32852874    -0.00005202     0.00006537    -0.00040914
H         0.73484892     0.66195990    -0.48452882    -0.00083370     0.00096250     0.00050034
H         0.76601631    -0.36469800     1.92144500    -0.00067704    -0.00135681    -0.00060765
H        -0.63114851     0.65396602     1.80338602     0.00091909     0.00091233    -0.00014385
H        -0.91797294    -0.04832519    -0.71009907     0.00026985    -0.00138082     0.00054012
