14

C   -5.98237356   -0.98098267   -0.08656063   -0.00006690   -0.00008748    0.00015972
C   -4.69917398   -0.67103582    0.09693356    0.00013497   -0.00012841   -0.00004732
H   -6.69962330   -0.24524444   -0.35193482   -0.00022122    0.00089842   -0.00030637
H   -6.41083040   -1.92482787    0.21646374    0.00001498    0.00023486   -0.00040705
H   -3.94332674   -1.41912499    0.49875748   -0.00026176    0.00022786   -0.00021483
C   -3.98719705    0.61452070   -0.11547642   -0.00013744    0.00017084   -0.00010694
C   -2.63727468    0.63498128    0.18583489   -0.00023579   -0.00033343   -0.00006938
H   -4.55247163    1.61749609   -0.36763388    0.00124745    0.00062900    0.00003942
H   -2.17349244   -0.31704149    0.52345388   -0.00018456   -0.00033818    0.00111814
C   -1.81197449    1.75003979    0.03336887    0.00034579    0.00022865    0.00004630
H   -2.12598262    2.75888826   -0.24550050   -0.00016738   -0.00190943    0.00069781
N   -0.45833203    1.65526590    0.22944693   -0.00016596    0.00009615   -0.00005325
H    0.18481555    2.42373741   -0.08417915    0.00029567    0.00036721   -0.00024215
H   -0.07220831    0.68767853    0.27624694    0.00109889    0.00033954    0.00026494
