6

C       -0.15812747     0.10968660    -0.29240225
N        0.03087466    -0.10368958     1.55049856
H       -0.15205523     1.10813635    -0.73045332
H       -0.49417906    -0.94347985     1.73368130
H        0.65800714     0.38397458     2.44640384
H        0.23072235    -1.08513151    -0.62026743
