6

C       -0.03220034     0.08283256    -0.03034998
N       -0.04328089    -0.11430712     1.35750927
H        0.87060773    -0.28127528    -0.67056688
H        0.83535164     0.10947507     1.84915819
H       -0.94476370     0.11932895     1.87507957
H       -0.98896704    -0.01591380    -0.66440548
