6

C   -0.04184163   -0.00298991    0.01179946   -0.00002513   -0.00005210    0.00028121
N   -0.03885826   -0.04056576    1.30499301   -0.00014401    0.00009836   -0.00015535
H    0.92778398   -0.00304741   -0.47571361    0.00016613    0.00002566   -0.00019480
H    0.81933655   -0.16727532    1.80963923    0.00104929   -0.00052419    0.00045481
H   -0.92797521   -0.08052664    1.85761354    0.00120438   -0.00038962   -0.00103581
H   -0.99350789    0.18041531   -0.57474310   -0.00011910    0.00014215   -0.00041628
