6

C   -0.03142760    0.01782016    0.04202413    0.00008121    0.00012322   -0.00012801
N   -0.04754479   -0.05325053    1.27524966    0.00012241   -0.00008811    0.00002644
H    0.91154745   -0.00625335   -0.53915814   -0.00037464   -0.00026722    0.00057036
H    0.81065715   -0.12115123    1.86801365   -0.00094874    0.00017285   -0.00072370
H   -0.88399621   -0.07888981    1.85216285   -0.00104773    0.00035516    0.00166557
H   -1.01595398    0.06415833   -0.51105643   -0.00029765   -0.00050473   -0.00035427
