6

C       -0.01021178     0.01323683     0.02047780
N       -0.07845009    -0.05363408     1.29714437
H        0.18264203    -0.89317015    -0.55533933
H        0.00106096     0.79005110     1.87067809
H       -0.04062888    -0.93973822     1.81134501
H       -0.14416870     0.96065284    -0.50422856
