     6
  Step:   300            Position(A)                                  Velocity(au)
C        -0.03292884     0.01901952     0.01492732    -0.00000688    -0.00001348     0.00007831
N        -0.04973734    -0.05735604     1.30078395     0.00000401     0.00000790    -0.00004467
H         0.10374829     0.96576184    -0.49538624     0.00104902    -0.00031751    -0.00014086
H        -0.17894699    -0.93940130     1.80458188     0.00115607    -0.00011343    -0.00007110
H         0.09186553     0.74842354     1.91828424    -0.00114902     0.00017974     0.00011568
H        -0.14603678    -0.87418107    -0.58945570    -0.00102981     0.00030203    -0.00021603
