     6
  Step:   600            Position(A)                                  Velocity(au)
C         0.02502413     0.44487836    -0.16028080    -0.00014854    -0.00034086    -0.00012813
N        -0.14496751    -0.52172840     1.58832846     0.00027656    -0.00002964     0.00034310
H        -0.00598929    -0.46155029    -0.49278601    -0.00091102    -0.00095159    -0.00388939
H         0.25571852    -0.60382751     2.42489968    -0.00275886     0.00415560    -0.00588239
H         1.07177302     1.08207761    -0.70898026     0.00337401     0.00037937     0.00327095
H        -0.81823958     1.26225643    -0.49311251    -0.00177736     0.00089025     0.00325970
