14

C       -5.49756007    -0.68886362     0.67998094
C       -4.80812561     0.25624548    -0.03731726
H       -5.37834222    -1.76298461     0.53780360
H       -6.25168204    -0.24931172     1.36022661
H       -5.06575135     1.37042310    -0.00025985
C       -3.66159776     0.06534313    -1.02711635
C       -2.34734999     0.12109063    -0.42477757
H       -3.86083702    -0.21707766    -2.10836048
H       -1.49707225    -0.18578137    -1.11337216
C       -2.04454487     1.13319390     0.55840470
H       -2.95810570     1.44389447     1.25766414
N       -1.06536045     1.94612293     0.51621571
H       -1.05300279     2.78335138     1.10658372
H       -0.33448627     1.84488444    -0.21091114
