     6
  Step:   300            Position(A)                                  Velocity(au)
C        -0.00674222     0.00743872     0.01980819     0.00004003    -0.00005750     0.00001841
N        -0.08201272    -0.05198061     1.29466854    -0.00016256     0.00004752    -0.00001463
H         0.11818345     0.97984360    -0.44062733     0.00032483    -0.00011676     0.00011313
H        -0.23380484    -0.89306735     1.85832904     0.00114208    -0.00005538     0.00037828
H         0.21623995     0.74901380     1.85615913     0.00045316    -0.00017729     0.00000354
H        -0.09352744    -0.87186956    -0.60900816    -0.00013808     0.00037425    -0.00051096
