6

C       -0.03443825    -0.01896884    -0.21397079
N       -0.05118482    -0.14597197     1.51311399
H        0.93909888     0.35043419    -0.58535042
H        0.82572346     0.36605775     1.78256538
H       -0.87188585     0.41285112     1.77661873
H       -0.98421120     0.45540907    -0.55886513
