     6
  Step:   600            Position(A)                                  Velocity(au)
C         0.18446763     0.06267795    -0.02188882    -0.00037826     0.00030878    -0.00001361
N        -0.33473789    -0.12177849     1.34216983     0.00086921    -0.00020619     0.00035080
H         1.35405795     0.73066206    -0.25908244    -0.00088994    -0.00342582     0.00111975
H         0.90717186    -0.24142559     1.62669282    -0.00620339     0.00132373    -0.00183340
H        -0.80655184     0.31753338     1.90645653    -0.00201026     0.00047006    -0.00400664
H        -0.21434609    -0.53093944    -0.77225743     0.00153197     0.00081790     0.00000764
