6

C       -0.05072801    -0.07152404    -0.01204525
N       -0.04262838    -0.03533123     1.33755425
H        0.89443091     0.22518754    -0.63404683
H        0.86737814     0.05176517     1.84356950
H       -0.94361624    -0.18598674     1.82846558
H       -0.83429778     0.58249963    -0.58952286
