6

C       -0.05006506     0.02808703     0.02905766
N       -0.05478341    -0.05658781     1.28844799
H        0.04531868    -0.92054688    -0.49963195
H        0.11154952     0.71424736     1.94177075
H        0.18216028    -0.94990034     1.75431388
H       -0.19409196     0.93809267    -0.55539014
