     6
  Step:   300            Position(A)                                  Velocity(au)
C        -0.06162888     0.00527824     0.01704449     0.00004032    -0.00008173     0.00010774
N        -0.02707022    -0.05527599     1.29885338    -0.00019000     0.00001938    -0.00010845
H         0.18536783     0.97759548    -0.40208935    -0.00046667     0.00020198     0.00049721
H         0.10042894    -0.92386539     1.81987195     0.00051689     0.00043390     0.00022088
H        -0.03494181     0.83872154     1.80001457     0.00158703    -0.00006148     0.00003527
H        -0.35324151    -0.85701332    -0.57817234     0.00052258     0.00013023    -0.00053015
