6

C       -0.03579912    -0.01517046    -0.06153540
N       -0.05941229    -0.11026582     1.37393526
H        0.71135472     0.73173329    -0.44595631
H        0.80508923    -0.29141316     1.93837969
H       -0.55393320     0.75210717     1.75197055
H       -0.92323068    -0.14912786    -0.71179093
