     6
  Step:   600            Position(A)                                  Velocity(au)
C        -0.15812747     0.10968660    -0.29240225    -0.00000454    -0.00033901    -0.00039527
N         0.03087466    -0.10368958     1.55049856     0.00013037     0.00056271    -0.00007433
H        -0.15205523     1.10813635    -0.73045332    -0.00287073     0.00270959     0.00142484
H        -0.49417906    -0.94347985     1.73368130    -0.00446225    -0.00223924    -0.00053174
H         0.65800714     0.38397458     2.44640384     0.00256373    -0.00478241    -0.00066763
H         0.23072235    -1.08513151    -0.62026743     0.00301164     0.00053208     0.00551736
