6

C       -0.30772479     0.18426010    -0.00145325
N        0.22722702    -0.28942587     1.33332116
H       -1.24481695    -0.30128006    -0.37263033
H       -0.57742360    -0.18668098     1.92638237
H        0.75489757     0.66027858     1.63931016
H        0.36333559     0.98410090    -0.81205785
