     6
  Step:   120            Position(A)                                  Velocity(au)
C        -0.03909458     0.06668251    -0.09505836     0.00006138    -0.00006140     0.00057784
N        -0.05222771    -0.00018014     1.41646453    -0.00008711    -0.00003601    -0.00052361
H         0.70258689    -0.69118322    -0.47878748    -0.00108628    -0.00117315     0.00042891
H         0.84912953    -0.06393480     1.94111754    -0.00011566     0.00166251     0.00007798
H        -0.63215731    -0.87467621     1.61541669     0.00135360    -0.00085921    -0.00042398
H        -0.94086811     0.16789528    -0.73668723     0.00032744     0.00160185     0.00030773
