14

C       -5.11059473    -1.37327111    -0.57037053
C       -4.79761067    -0.08654286    -0.18319018
H       -4.94212605    -2.27889948     0.16657681
H       -5.34148642    -1.53684857    -1.63513473
H       -4.88634636     0.53073207    -1.20473868
C       -4.19918050     0.88156941     0.87555159
C       -2.96564563     1.50352708     0.77537031
H       -4.95321222     1.32393963     1.52863015
H       -2.82806924     2.28787477     1.44617655
C       -1.85079737     0.89406432    -0.04454922
H       -1.96297972    -0.23541278    -0.23981491
N       -0.67500352     1.31417544    -0.32673313
H       -0.10330959     0.58960907    -0.71294745
H       -0.07875712     2.01838539     0.04281069
