     6
  Step:   600            Position(A)                                  Velocity(au)
C         0.17289629     0.02516528     0.05358376    -0.00088016    -0.00101569     0.00039636
N        -0.16380392    -0.07765658     1.24690337     0.00078952     0.00120758     0.00015973
H        -0.51708652    -0.85967474    -0.24597202    -0.00011906     0.00169445    -0.00652554
H        -0.73699174    -0.94395075     1.61139611    -0.00032068    -0.00738719    -0.00178061
H         0.04821674     0.83651512     2.17498164    -0.00271306     0.00030914     0.00210730
H         0.20897721     1.07629629    -0.61394002     0.00266943     0.00070553    -0.00074385
