12

C       -0.03936445     0.01061304    -0.19647264
N       -0.04328274    -0.08355124     1.48833194
H        0.92318549    -0.23565217    -0.70934946
H        0.78266000     0.37898495     1.92122248
H       -0.93783575    -0.30405994     1.99538106
H       -0.91039983     0.52555548    -0.65643914
C       -0.03950348     0.01037134    -0.19449022
N       -0.04274819    -0.08386428     1.48675783
H        0.92127780    -0.24422713    -0.70893709
H        0.77345690     0.39079605     1.91661357
H       -0.93669349    -0.31093623     1.99479266
H       -0.90620293     0.53642594    -0.65340245
