14

C       -5.38328805    -0.62854113     0.87195986
C       -4.71520006     0.13237541    -0.05874057
H       -5.80884490    -1.69048605     0.85109277
H       -5.59368686    -0.09843035     1.81440352
H       -4.68536457     1.06442822     0.55941186
C       -3.76668510     0.01663767    -1.16458676
C       -2.39148252     0.36299228    -0.82872069
H       -4.00284259    -0.12766682    -2.20910749
H       -1.69026858     0.12221517    -1.60573869
C       -2.05675458     1.05306623     0.43576855
H       -2.91169171     1.05829520     1.30510805
N       -1.12320386     1.91742057     0.79161460
H       -1.26288984     2.26871148     1.73671755
H       -0.18569822     2.23860684     0.43083881
