14

C       -5.66591536    -0.75706379     0.46308196
C       -4.83016188    -0.78640494    -0.57429405
H       -5.37897395    -0.06398987     1.24102230
H       -6.72269484    -1.05066826     0.60378992
H       -4.99958238    -1.30552764    -1.45812824
C       -3.77732512     0.23294029    -0.33880572
C       -2.79629012     0.75038642     0.37237366
H       -4.00857753     0.88198281    -1.16442303
H       -2.66014179     0.26084107     1.38677324
C       -1.76363261     1.78947926    -0.16895721
H       -2.03866096     2.31367877    -1.17494919
N       -0.67245587     1.71342691     0.50555184
H        0.21640817     2.24695761     0.33501864
H       -0.61761899     0.89819597     1.15679974
