6

C       -0.00577850     0.00579284     0.02298814
N       -0.09037345    -0.05190941     1.29383234
H        0.12076968     0.97812474    -0.44596627
H       -0.10065090    -0.90271417     1.87302667
H        0.18587789     0.75418062     1.86035398
H       -0.09420025    -0.84704654    -0.64883503
