     6
  Step:   300            Position(A)                                  Velocity(au)
C        -0.05006506     0.02808703     0.02905766     0.00005482     0.00001232    -0.00002504
N        -0.05478341    -0.05658781     1.28844799    -0.00016069    -0.00003581     0.00002858
H         0.04531868    -0.92054688    -0.49963195    -0.00178565     0.00002958    -0.00042919
H         0.11154952     0.71424736     1.94177075    -0.00086753    -0.00026007     0.00041282
H         0.18216028    -0.94990034     1.75431388     0.00265925     0.00066189     0.00028217
H        -0.19409196     0.93809267    -0.55539014     0.00157372    -0.00008058    -0.00036466
