     6
  Step:   300            Position(A)                                  Velocity(au)
C        -0.03962699     0.00798008     0.02697132     0.00001464    -0.00001159     0.00004393
N        -0.04323690    -0.04975743     1.28566258    -0.00004396     0.00001637    -0.00006294
H         0.13695929     0.98624463    -0.43171688    -0.00167339    -0.00004553    -0.00010256
H        -0.19514571    -0.92645109     1.80244379    -0.00151773     0.00047290     0.00044530
H         0.13286575     0.77634057     1.87862900     0.00196806    -0.00062097     0.00024409
H        -0.21460102    -0.90955050    -0.54471599     0.00165955     0.00010420    -0.00023560
