6

C       -0.03116169     0.01540648     0.01413973
N       -0.05221058    -0.05324464     1.29993579
H       -0.02647016    -0.91647086    -0.55531507
H       -0.17894916     0.75409882     1.91590454
H        0.12379763    -0.94298409     1.77440343
H       -0.03446738     0.99189289    -0.47580477
