6

C       -0.03192710     0.06422923    -0.15284970
N       -0.05206429     0.00855904     1.46924930
H        0.70498338    -0.68605176    -0.53128082
H        0.87051211    -0.22098290     1.93574322
H       -0.70532775    -0.80695231     1.61657175
H       -0.97914332     0.15990424    -0.72484586
