6

C   -0.03125529    0.00357813    0.02545682   -0.00002374   -0.00008639    0.00030200
N   -0.04785023   -0.04415877    1.29139325   -0.00010357   -0.00000281   -0.00031332
H    0.89077525    0.04007143   -0.53714082    0.00002125    0.00044172    0.00035234
H    0.85304048   -0.15492463    1.86769538    0.00105842   -0.00001012    0.00118209
H   -0.92324135   -0.06109339    1.80855724    0.00104259    0.00027978   -0.00014581
H   -0.99612851    0.07717697   -0.49607030   -0.00040008    0.00035716   -0.00063330
