6

C       -0.04484754    -0.02013901    -0.13373329
N       -0.05063846    -0.13288893     1.43943617
H        0.80238336     0.64186041    -0.43278552
H        0.85910034     0.01636697     1.93135348
H       -0.66047382     0.69527291     1.71889314
H       -0.97586356     0.06339068    -0.73474139
