     6
  Step:   300            Position(A)                                  Velocity(au)
C        -0.03131714     0.01004738     0.01500910    -0.00003553    -0.00004847     0.00016503
N        -0.04480615    -0.05533997     1.29963000     0.00012539     0.00002385    -0.00016353
H         0.20449573    -0.88457002    -0.57146800    -0.00138859     0.00002550    -0.00058924
H        -0.04370772     0.81323865     1.84105636    -0.00227060    -0.00027908     0.00035595
H        -0.13928715    -0.94564551     1.79132492     0.00086963     0.00034260     0.00054061
H        -0.23861423     0.99650967    -0.40785120     0.00147050     0.00015709    -0.00000144
