6

C       -0.03335090     0.00967151     0.01368932
N       -0.05003990    -0.05006107     1.30179715
H        0.23141414    -0.89835738    -0.52350616
H        0.05965241     0.80698262     1.84774089
H       -0.11481101    -0.95845299     1.76213797
H       -0.29639651     0.96047355    -0.44767622
