     6
  Step:   300            Position(A)                                  Velocity(au)
C        -0.05181295    -0.00639148     0.02557745     0.00007548    -0.00005363    -0.00005525
N        -0.05177976    -0.04660610     1.29100218    -0.00021773     0.00004292     0.00004072
H         0.14915229     0.97949167    -0.39574231    -0.00153052     0.00028593    -0.00018276
H         0.09353633    -0.88739490     1.84855154    -0.00030641     0.00032076     0.00047738
H         0.16949260     0.80349903     1.83547196     0.00266825    -0.00061934     0.00031348
H        -0.28816409    -0.84157208    -0.64125071     0.00129489     0.00005537    -0.00051558
