     6
  Step:   300            Position(A)                                  Velocity(au)
C        -0.04384745     0.01452217     0.02232193    -0.00001265    -0.00004052     0.00016033
N        -0.03876391    -0.04855039     1.29563045     0.00000933     0.00003222    -0.00010659
H         0.87560030    -0.04490884    -0.55027083    -0.00018834    -0.00110205    -0.00010309
H         0.81717369    -0.14775277     1.84409386     0.00006189     0.00122843    -0.00002194
H        -0.88364774    -0.10871742     1.87838028    -0.00006556    -0.00138911    -0.00020619
H        -0.96088651     0.13321228    -0.55068030     0.00021303     0.00129782    -0.00009804
