14

C       -5.00545032    -0.54360890     0.83311199
C       -4.96948257    -0.10348557    -0.42932741
H       -4.21230151    -0.34297512     1.50197560
H       -6.01252246    -0.67431476     1.38250639
H       -5.79024590    -0.42521190    -1.09799162
C       -3.78945226     0.29316850    -1.15685361
C       -2.57377259     0.50725279    -0.39021664
H       -3.76760369     0.58003817    -2.22306046
H       -1.79223275     0.29509645    -1.09251477
C       -2.24118839     1.17560647     0.74823667
H       -2.71887123     1.36740303     1.67698309
N       -0.95065057     1.60254996     0.62148847
H       -0.20578283     1.87184856     1.27831550
H       -0.87166384     1.86449420    -0.34117397
