6

C       -0.04563543     0.01837471     0.03289441
N       -0.05380791    -0.05202257     1.28309612
H       -0.05024171    -0.92158512    -0.51840015
H       -0.00773458     0.72852679     1.95287240
H        0.24370840    -0.91495395     1.76979789
H       -0.10713194     0.94221224    -0.53455259
