12

C       -0.03467874    -0.00772593    -0.19949303
N       -0.05400891    -0.12652759     1.49430165
H        0.85505182     0.56758919    -0.59256096
H        0.84486611    -0.00897145     1.98579911
H       -0.75256532     0.60111118     1.84253818
H       -0.99652457     0.02083486    -0.73189019
C       -0.03439904    -0.00847978    -0.19828326
N       -0.05464800    -0.12676677     1.49329473
H        0.85105507     0.57839827    -0.58792837
H        0.84691231    -0.01262555     1.98551114
H       -0.74457320     0.60968851     1.83785720
H       -0.99701809     0.01740915    -0.73197695
