6

C   -0.04238395    0.00426555    0.00225514    0.00002250    0.00000122    0.00022497
N   -0.04290503   -0.06228477    1.31020625   -0.00016145   -0.00006734   -0.00022287
H    0.94361432    0.06657606   -0.53071116    0.00051467   -0.00001396   -0.00073060
H    0.85193469   -0.07188808    1.92631153    0.00004148    0.00058934    0.00078362
H   -0.89015621    0.02536498    1.79655776    0.00151115    0.00017574    0.00002941
H   -1.01705730    0.12487223   -0.53407645   -0.00009183    0.00017015    0.00033390
