     6
  Step:   120            Position(A)                                  Velocity(au)
C        -0.04324721    -0.02973651    -0.00922899    -0.00008082    -0.00015535    -0.00039610
N        -0.04171263    -0.07319122     1.34216943     0.00005202     0.00008051     0.00030317
H         0.87001817     0.10649477    -0.68757953     0.00097699    -0.00032361     0.00011907
H         0.84911520     0.19090852     1.84931067     0.00001882     0.00058699     0.00011225
H        -0.95520446    -0.03916963     1.82087564    -0.00034245    -0.00104879     0.00006273
H        -0.88188067     0.44342411    -0.63184454    -0.00041313     0.00151776     0.00021289
