14

C       -5.86283636    -0.98647730    -0.52301751
C       -5.07104188    -0.08642556     0.21570203
H       -5.51958595    -1.52049010    -1.42399369
H       -6.97878374    -1.00728105    -0.49676430
H       -5.52329141     0.53716185     0.93189733
C       -3.68943350     0.03480486     0.34541879
C       -2.70071620     0.88581679    -0.24061096
H       -3.47760994    -0.15612941     1.53704629
H       -2.66874929     0.89099568    -1.39852502
C       -1.72762951     1.58113430     0.51948501
H       -1.97012730     2.15739849     1.36107573
N       -0.48376008     1.52480368     0.07469742
H        0.17925811     2.11588120     0.55951474
H       -0.27161925     1.40771265    -0.87172333
