6

C       -0.03162250     0.00944456     0.02276037
N       -0.04721314    -0.04440105     1.29515386
H        0.89348319     0.04026733    -0.54844370
H        0.78669740    -0.17536621     1.88311041
H       -0.90960705    -0.05988052     1.84204584
H       -0.95060946     0.02968118    -0.55380713
