     6
  Step:   300            Position(A)                                  Velocity(au)
C        -0.02835330     0.01420742     0.02768472    -0.00000116     0.00000223    -0.00002817
N        -0.05451144    -0.05446554     1.29162838     0.00004304    -0.00000633    -0.00000048
H         0.20884935    -0.87782672    -0.55479153     0.00059836     0.00009508     0.00046866
H         0.08250120     0.78566512     1.86076568     0.00050599     0.00008522    -0.00031249
H        -0.15303113    -0.93842345     1.79315099    -0.00096530     0.00002216    -0.00031058
H        -0.25588617     0.94839289    -0.48589205    -0.00072338    -0.00014097     0.00049685
