6

C       -0.06308605     0.01915117     0.01350002
N       -0.00629480    -0.05932431     1.30511596
H        0.25566673     0.95147517    -0.45668962
H       -0.07965599    -0.97786351     1.75321126
H       -0.14714759     0.80523367     1.83677562
H       -0.40258135    -0.85242382    -0.53848552
