     6
  Step:   300            Position(A)                                  Velocity(au)
C        -0.04655678     0.01207005     0.03007601     0.00000410    -0.00000228    -0.00003893
N        -0.03274283    -0.05305634     1.29035333    -0.00003007     0.00001699     0.00003375
H         0.17580846    -0.86110713    -0.58690735     0.00094047     0.00002301     0.00040164
H         0.02964845     0.77376471     1.88493664     0.00116727    -0.00000242    -0.00025827
H        -0.14584237    -0.94272870     1.78375710    -0.00083389    -0.00012701    -0.00043574
H        -0.26278917     0.95375429    -0.47936063    -0.00090475    -0.00010257     0.00028731
