12

C       -0.03543939     0.05744913    -0.20373030
N       -0.04642601    -0.00383075     1.50650534
H        0.87168682    -0.40171632    -0.63541785
H        0.84150719    -0.29642071     1.92568730
H       -0.84595332    -0.64603281     1.83442682
H       -1.01273912     0.04304192    -0.73992278
C       -0.03528887     0.05743324    -0.20300793
N       -0.04663698    -0.00253226     1.50622334
H        0.86824484    -0.40974246    -0.63161946
H        0.84077635    -0.29739511     1.92322355
H       -0.84047607    -0.65893665     1.82815137
H       -1.01290549     0.04709123    -0.73967109
