     6
  Step:   120            Position(A)                                  Velocity(au)
C        -0.03293304    -0.07270774    -0.02709460     0.00001237    -0.00022772    -0.00024484
N        -0.03497096     0.00430318     1.35560215     0.00003334     0.00003606     0.00006812
H         0.82273320     0.46572121    -0.61253777    -0.00015689     0.00153626     0.00082536
H         0.77893975    -0.47065468     1.80630625    -0.00047575    -0.00032256     0.00027859
H        -0.97948345    -0.09118862     1.81552941     0.00011266     0.00080649     0.00030684
H        -0.95673164     0.23294600    -0.63231651    -0.00009069     0.00019217     0.00056010
