6

C       -0.05400743    -0.08250435    -0.02348574
N       -0.04006169    -0.04156454     1.34117516
H        0.90666296     0.26810626    -0.60411203
H        0.85620405     0.07218631     1.84178513
H       -0.96317155    -0.10657724     1.83984059
H       -0.81238147     0.65722891    -0.54307119
