    14
  Step:   600            Position(A)                                  Velocity(au)
C        -6.04023527    -0.84651275    -0.04853028    -0.00013066    -0.00029435     0.00009805
C        -4.74374362    -0.74046152     0.19692240    -0.00027624     0.00030729    -0.00048412
H        -6.57668678     0.04803126    -0.44020273    -0.00023320    -0.00114548     0.00020852
H        -6.65764655    -1.71339884     0.15170160     0.00058352     0.00092442     0.00183496
H        -4.03603971    -1.52490346     0.62932307    -0.00007412     0.00231053     0.00003304
C        -3.95790987     0.38171192    -0.25907583     0.00059383     0.00042565     0.00009336
C        -2.57489943     0.59799452     0.04979638    -0.00062846    -0.00078739     0.00040529
H        -4.39403653     0.77041610    -1.16795944     0.00022432    -0.00172957     0.00190203
H        -1.91091590    -0.20211157     0.17735373     0.00102987     0.00189566    -0.00215288
C        -1.81767370     1.82630082     0.31557407     0.00042403    -0.00011572    -0.00080426
H        -2.55132192     2.55523399     0.77328155     0.00064595    -0.00188060     0.00005803
N        -0.42570228     1.77091603     0.16837201     0.00007685     0.00022196     0.00044437
H         0.30497791     2.48140109     0.10657634    -0.00051545     0.00064166     0.00167244
H        -0.22860905     1.09085454    -0.59074720    -0.00252042     0.00143429    -0.00148920
