     6
  Step:   300            Position(A)                                  Velocity(au)
C        -0.04390926     0.01423948     0.02212098    -0.00001365    -0.00004097     0.00016642
N        -0.03879709    -0.04813476     1.29563967     0.00001044     0.00003461    -0.00011189
H         0.87679389    -0.03990268    -0.54878897    -0.00021007    -0.00107847    -0.00012000
H         0.81632638    -0.15481410     1.84390410     0.00005241     0.00119185    -0.00000020
H        -0.88260192    -0.10290706     1.88010576    -0.00006169    -0.00137738    -0.00018347
H        -0.96108122     0.12705016    -0.55143128     0.00023694     0.00127123    -0.00012458
