6

C       -0.03363522     0.01083416     0.01269172
N       -0.05012434    -0.05079507     1.30318812
H        0.23120376    -0.89229518    -0.52917277
H        0.07485421     0.80339598     1.84995436
H       -0.12629613    -0.96173398     1.76182062
H       -0.29536955     0.95763576    -0.45136594
