14

C       -5.98685049    -1.10757785     0.12305808
C       -4.70494550    -0.68044455    -0.11016223
H       -6.85831771    -0.38321687     0.42293839
H       -6.13712920    -2.17995976    -0.19753347
H       -3.96959863    -1.41313978    -0.25171278
C       -4.05869195     0.68995693    -0.15465050
C       -2.68230648     0.80994775     0.21023260
H       -4.61996380     1.61856710    -0.28011629
H       -2.36628357    -0.10213238     0.89839596
C       -1.60467557     1.59848463    -0.32387308
H       -1.57152464     1.84828030    -1.35927495
N       -0.53754030     1.74739048     0.51676156
H        0.40683814     2.01997516     0.23247300
H       -0.53485332     1.33525356     1.41056326
