14

C   -6.03668530   -0.64745690   -0.14247519    0.00026268   -0.00010984    0.00011406
C   -4.70372348   -0.76695795    0.11839983   -0.00028908   -0.00021736   -0.00001870
H   -6.52080861    0.31748203   -0.36170162   -0.00032825    0.00026871   -0.00041822
H   -6.60185768   -1.55182825    0.15231823    0.00044780   -0.00001599   -0.00012228
H   -4.28940950   -1.75329929    0.41959537   -0.00032816    0.00073721    0.00028757
C   -3.86153988    0.36476862   -0.01792817    0.00010235    0.00040218   -0.00028428
C   -2.51814717    0.42267559    0.16768768   -0.00020780   -0.00022051    0.00026884
H   -4.31313791    1.33543118   -0.30638290    0.00001683   -0.00024745   -0.00031068
H   -1.91138736   -0.47945208    0.48303943    0.00009187    0.00023265   -0.00067575
C   -1.81916318    1.62415338   -0.00083734   -0.00020724    0.00001335    0.00023904
H   -2.44777270    2.49480515   -0.24595047    0.00087550   -0.00039527   -0.00001350
N   -0.57233550    1.90142582    0.20659464    0.00021889    0.00002664   -0.00023870
H   -0.28141808    2.89619096   -0.01116569    0.00013541    0.00090714    0.00097884
H    0.02709130    1.07618238    0.52542930    0.00008790   -0.00028207   -0.00020975
