     6
  Step:   300            Position(A)                                  Velocity(au)
C        -0.04308698     0.02036431     0.01217199    -0.00006339    -0.00000692    -0.00005979
N        -0.04303543    -0.05758465     1.30212201     0.00001832    -0.00001521     0.00001920
H         0.91921905    -0.19319813    -0.45717644     0.00061739     0.00093628     0.00054705
H         0.86322307     0.00455900     1.77018681     0.00022730    -0.00098104    -0.00005216
H        -0.91065463    -0.20691451     1.82985601    -0.00003347     0.00103271     0.00012402
H        -0.97323134     0.28332595    -0.49058088    -0.00031047    -0.00069413    -0.00017333
