12

C       -0.04462920     0.06797772    -0.02976882
N       -0.04018010    -0.05199590     1.35687203
H        0.91114038     0.00175802    -0.66322470
H        0.79850747    -0.44525877     1.81948130
H       -0.93664808     0.09735675     1.87951780
H       -0.89575959    -0.41108874    -0.64456411
C       -0.04503379     0.06882750    -0.02996981
N       -0.04028722    -0.05245423     1.35630334
H        0.91137957     0.00528078    -0.66004185
H        0.79545288    -0.45075282     1.82090272
H       -0.93158473     0.10451578     1.88082438
H       -0.89169781    -0.42003327    -0.64017710
