6

C       -0.04503379     0.06882750    -0.02996981
N       -0.04028722    -0.05245423     1.35630334
H        0.91137957     0.00528078    -0.66004185
H        0.79545288    -0.45075282     1.82090272
H       -0.93158473     0.10451578     1.88082438
H       -0.89169781    -0.42003327    -0.64017710
