6

C       -0.02330942     0.04934114     0.01476775
N       -0.04603043    -0.06066819     1.31450093
H        0.66186984    -0.60946213    -0.62471423
H        0.71924924     0.37191959     1.89998357
H       -0.80904892    -0.56526247     1.82980816
H       -0.86758763     0.38814698    -0.65576907
