6

C       -0.03287572     0.01395231    -0.04974208
N       -0.03345955    -0.02680157     1.36861996
H        0.81676633     0.41345883    -0.67726375
H        0.57739447    -0.74410578     1.83802216
H       -0.85430782     0.27951636     1.95059303
H       -0.89607173    -0.41246583    -0.64541243
