     6
  Step:   600            Position(A)                                  Velocity(au)
C         0.02983339     0.02907472    -0.18678105    -0.00006331     0.00074483    -0.00100180
N        -0.11494307    -0.04488930     1.50968258     0.00068479    -0.00040753     0.00033418
H         0.50621767    -0.91188719    -0.64495138    -0.00271811    -0.00115337     0.00268626
H         0.44973203     0.63350104     2.00505036    -0.00349994     0.00319337     0.00256589
H        -0.00563017    -1.00359098     1.68952604    -0.00405555    -0.00151021     0.00138618
H        -0.92156833     0.88923445    -0.91104060     0.00151187    -0.00374201     0.00065533
