     6
  Step:   120            Position(A)                                  Velocity(au)
C        -0.01776204    -0.05147283    -0.02842430     0.00009496    -0.00004569     0.00003916
N        -0.04846796    -0.04764826     1.34227044     0.00001917     0.00004132    -0.00014830
H         0.72086366     0.68375073    -0.51258873    -0.00099313     0.00124555     0.00071339
H         0.74634814    -0.49375941     1.86343403    -0.00115241    -0.00128265     0.00008664
H        -0.81753899     0.40494167     1.86921152     0.00068756     0.00114376     0.00024688
H        -0.97742223     0.01078228    -0.64197197     0.00006003    -0.00113640     0.00054730
