     6
  Step:   120            Position(A)                                  Velocity(au)
C        -0.01756171    -0.08045116    -0.03041638     0.00009338    -0.00004184     0.00000578
N        -0.03616080    -0.01818921     1.33968754     0.00000401     0.00003762    -0.00010759
H         0.70161154     0.68857172    -0.48870463    -0.00079463     0.00115282     0.00052532
H         0.68486547    -0.55674057     1.85107545    -0.00106870    -0.00112321     0.00035773
H        -0.90501082     0.25512602     1.88756934     0.00084103     0.00086248    -0.00006267
H        -0.98263814     0.15466310    -0.61220793    -0.00014614    -0.00091628     0.00060578
