6

C       -0.03653606     0.00145910    -0.01483138
N       -0.04865129    -0.05651048     1.33058340
H        0.95338181     0.04727555    -0.55034327
H        0.86081071    -0.07724130     1.83421938
H       -0.91300456    -0.02444944     1.88480732
H       -1.00268618     0.15254097    -0.59016074
