14

C       -5.97164162    -1.09035997    -0.32105676
C       -4.77717379    -0.29528463    -0.44044774
H       -6.28023775    -1.35793333     0.72496314
H       -6.58288922    -1.21814769    -1.20430028
H       -4.37588979    -0.02095458    -1.38875000
C       -3.90243079     0.18836210     0.72860399
C       -2.79233911     1.16098479     0.65524373
H       -4.39583178     0.01849568     1.67646114
H       -2.25408529     1.54163947     1.56878157
C       -1.75774467     1.26624206    -0.28741643
H       -1.74257262     1.08060392    -1.40641199
N       -0.40156934     1.71939801     0.04985924
H        0.23834163     2.04002188    -0.72145731
H       -0.19464224     2.00800211     1.08061847
