     6
  Step:   120            Position(A)                                  Velocity(au)
C        -0.05286597     0.09825922    -0.02386990    -0.00010623     0.00006924    -0.00003865
N        -0.03964952    -0.06094527     1.34489487    -0.00001944    -0.00009041    -0.00008577
H         0.90613793    -0.06019094    -0.62689966     0.00021286     0.00095727     0.00059402
H         0.76530422    -0.55364814     1.81669051    -0.00049631    -0.00084200     0.00013423
H        -0.89380851     0.20182783     1.87794634     0.00096284     0.00146521     0.00025499
H        -0.80963181    -0.58171083    -0.58039255     0.00085664    -0.00114923     0.00066929
