6

C   -0.03531192    0.01139466    0.03674559   -0.00009373   -0.00011633    0.00009048
N   -0.04612971   -0.06066126    1.28118659    0.00022167    0.00004472   -0.00015659
H    0.89160136    0.03553946   -0.53191926    0.00008312    0.00051611   -0.00006256
H    0.82211948   -0.07077523    1.86371466   -0.00211916   -0.00014164   -0.00050469
H   -0.89444525    0.01390162    1.82702443   -0.00078757    0.00009916    0.00078914
H   -0.97039959    0.05874732   -0.50846048    0.00086006    0.00029106    0.00087603
