12

C       -0.03588032     0.04103016    -0.12953027
N       -0.03464138    -0.02403094     1.43750707
H        0.88088359     0.26559209    -0.71059784
H        0.61664046    -0.76563183     1.83198275
H       -0.90557680     0.14233873     1.97662731
H       -0.89595661    -0.46705359    -0.63858860
C       -0.03599958     0.04100374    -0.12641970
N       -0.03426777    -0.02373995     1.43491779
H        0.87766610     0.27261947    -0.70814415
H        0.60824369    -0.77364141     1.82667300
H       -0.90263728     0.14902062     1.97521670
H       -0.89105266    -0.47648229    -0.63540613
