     6
  Step:   120            Position(A)                                  Velocity(au)
C        -0.03766595     0.04344063    -0.11970979    -0.00006111    -0.00007976     0.00067073
N        -0.04319762    -0.05081576     1.42228910     0.00005965     0.00007494    -0.00056038
H         0.87595269     0.32542713    -0.70282335    -0.00033688     0.00158903     0.00036728
H         0.68193099    -0.64461233     1.88643726    -0.00145592    -0.00149727    -0.00073648
H        -0.84800440     0.32706597     2.00987827     0.00076734     0.00126424    -0.00016772
H        -0.87369845    -0.48916442    -0.63961753     0.00092466    -0.00144691     0.00033167
