12

C       -0.03549955     0.04935762    -0.17302119
N       -0.04924526     0.00359354     1.48318865
H        0.80361995    -0.53644592    -0.62141642
H        0.86400840    -0.18290497     1.95886579
H       -0.78066796    -0.70683439     1.73295150
H       -0.99254226     0.11832952    -0.72754904
C       -0.03525407     0.04993874    -0.17145091
N       -0.04938459     0.00378573     1.48194587
H        0.79803976    -0.54693937    -0.61697024
H        0.86220930    -0.17690322     1.95746842
H       -0.77498529    -0.71586899     1.72771163
H       -0.99183459     0.12226035    -0.72679943
