6

C       -0.03525407     0.04993874    -0.17145091
N       -0.04938459     0.00378573     1.48194587
H        0.79803976    -0.54693937    -0.61697024
H        0.86220930    -0.17690322     1.95746842
H       -0.77498529    -0.71586899     1.72771163
H       -0.99183459     0.12226035    -0.72679943
