6

C       -0.24829842    -0.10565583     0.01770618
N        0.16945261     0.08794607     1.49337796
H        0.27318087     0.78840238    -0.63068186
H       -1.40010545     0.24601258    -0.05050174
H        1.02238990    -0.48781001     1.08948078
H       -0.50500742    -1.17970456    -0.47961134
