6

C       -0.18007146     0.01451944    -0.00822843
N        0.23293171    -0.02553935     1.43547979
H       -1.18609828     0.42518452    -0.52759813
H       -0.56958071    -0.76342431     0.98565870
H       -0.74069502     0.27595287     1.63772712
H        0.19277065    -0.42587607    -1.05312026
