12

C       -0.03614406    -0.02386904    -0.17556363
N       -0.04106559    -0.13428627     1.47501430
H        0.93456098     0.12094331    -0.68607637
H        0.66614030     0.58895384     1.73454849
H       -0.94675742     0.13720923     1.93017967
H       -0.86552460     0.63363792    -0.49190675
C       -0.03628112    -0.02398739    -0.17400597
N       -0.04065000    -0.13428101     1.47377918
H        0.93531926     0.11446887    -0.68698848
H        0.65964188     0.59556081     1.72825923
H       -0.94935242     0.13138598     1.93051102
H       -0.86133139     0.64066578    -0.48643423
