     6
  Step:   120            Position(A)                                  Velocity(au)
C        -0.04705748     0.06773173    -0.11110745     0.00001931    -0.00007683     0.00051975
N        -0.04262119     0.00643294     1.43218858    -0.00001183    -0.00001712    -0.00048159
H         0.74374583    -0.66718478    -0.44353353    -0.00094216    -0.00103697     0.00044196
H         0.87291202    -0.22270708     1.92072304    -0.00030682     0.00178555     0.00014752
H        -0.72580471    -0.76353489     1.59287845     0.00077169    -0.00132293    -0.00023008
H        -0.95074886     0.08715995    -0.75626824     0.00041158     0.00172777     0.00013959
