6

C   -0.03478927    0.00493570    0.03468285   -0.00007619   -0.00008686   -0.00008015
N   -0.04546073   -0.04289060    1.27901325   -0.00014961    0.00004686    0.00008847
H    0.91603569    0.02042142   -0.49616501    0.00070124    0.00047186   -0.00011478
H    0.81458216   -0.18114815    1.85852131    0.00153491   -0.00043227    0.00078549
H   -0.89352078   -0.07698422    1.90084210    0.00080844    0.00010549   -0.00070481
H   -1.00374550    0.10514136   -0.55805768   -0.00005763    0.00023876   -0.00024021
