     6
  Step:   120            Position(A)                                  Velocity(au)
C        -0.03331395    -0.00824995    -0.08807014     0.00006564    -0.00000465     0.00067416
N        -0.05441662    -0.10286198     1.39467037    -0.00005392    -0.00000463    -0.00057517
H         0.74141802     0.70623230    -0.48938303    -0.00116614     0.00117863     0.00063999
H         0.79834965    -0.31760626     1.94833235    -0.00073980    -0.00113876    -0.00051790
H        -0.67055905     0.63039810     1.84740484     0.00140329     0.00152919    -0.00047155
H        -0.92898519    -0.16109661    -0.74568965     0.00046977    -0.00144922     0.00030894
