14

C   -6.03976206   -0.77961484   -0.14109918   -0.00037768   -0.00024871   -0.00004526
C   -4.71406715   -0.69323419    0.18029647    0.00017685   -0.00000559    0.00014009
H   -6.61888300   -0.12585911   -0.76176276   -0.00039666   -0.00020715    0.00014958
H   -6.52366624   -1.71310474    0.13696934    0.00108335    0.00092598    0.00034741
H   -4.36564525   -1.55659277    0.77690761    0.00016788   -0.00024203   -0.00069388
C   -3.89320117    0.42450015   -0.08266243   -0.00007989    0.00022682    0.00012443
C   -2.56670983    0.50005592    0.24076849   -0.00011970   -0.00010714   -0.00028924
H   -4.28745337    1.30725043   -0.51574547   -0.00032198   -0.00059987   -0.00014083
H   -2.08608995   -0.21205279    0.86625250    0.00071732   -0.00053204    0.00105898
C   -1.74834261    1.66001283   -0.11506542    0.00013255    0.00013752   -0.00025492
H   -2.33577422    2.50655607   -0.57491587    0.00082104    0.00111630   -0.00014607
N   -0.56379631    1.83245137    0.26311836   -0.00003916    0.00002769    0.00009000
H   -0.02158476    2.65669491   -0.04026593    0.00095385    0.00045520    0.00070854
H    0.05370279    1.06628264    0.48999707    0.00071124   -0.00133579    0.00133709
