12

C       -0.03483939    -0.02072931    -0.16409060
N       -0.04043149    -0.13893390     1.46984259
H        0.93332521     0.06144027    -0.71489149
H        0.63606131     0.63642048     1.67297917
H       -0.96308265     0.12117110     1.92777305
H       -0.84225131     0.68889061    -0.46395093
C       -0.03489175    -0.02065479    -0.16222671
N       -0.04020982    -0.13869994     1.46814512
H        0.93233251     0.05230887    -0.71531513
H        0.63022788     0.64374555     1.66938653
H       -0.96333295     0.11269134     1.92778019
H       -0.83763145     0.69503754    -0.45856319
