14

C       -5.56976184    -0.76074203     0.62824762
C       -4.70784440     0.11573864     0.17439033
H       -5.47424823    -1.67065143     0.01590179
H       -6.45603080    -0.67401078     1.29859092
H       -4.70802876     1.10184348     0.67666060
C       -3.67870467     0.00245406    -0.90058900
C       -2.57355528     0.74832415    -0.83540828
H       -4.16500161    -0.14051004    -1.92582683
H       -1.98034579     0.96603593    -1.74504205
C       -2.00286884     1.10044781     0.47189506
H       -2.41910178     0.51696143     1.22893727
N       -0.94184726     1.75300703     0.69877473
H       -0.25469464     1.74553646     1.44004839
H       -0.59069945     2.06176344    -0.18761271
