     6
  Step:   300            Position(A)                                  Velocity(au)
C        -0.03921501     0.04115719     0.02545882     0.00006188    -0.00003620    -0.00000681
N        -0.05247115    -0.10154155     1.29635367    -0.00001681     0.00011365    -0.00000993
H         0.92578965     0.14646201    -0.45543330    -0.00028730     0.00094416    -0.00000889
H         0.83600293    -0.11586644     1.81336968     0.00006898    -0.00159500    -0.00006295
H        -0.85169896     0.26992948     1.80881236    -0.00020808     0.00034750    -0.00050363
H        -0.92658381    -0.04967274    -0.59266161    -0.00007735    -0.00084467     0.00079456
