12

C       -0.03504423    -0.02515800    -0.10338287
N       -0.03944336    -0.12385957     1.41327705
H        0.88680806    -0.04828086    -0.72592338
H        0.60058528     0.66434979     1.69344696
H       -0.94931938    -0.02086485     1.93271837
H       -0.78530515     0.75600542    -0.41566954
C       -0.03533502    -0.02510718    -0.10011450
N       -0.03886476    -0.12347471     1.41043499
H        0.88481684    -0.05686383    -0.72566424
H        0.59332571     0.66964289     1.69060462
H       -0.95043888    -0.02904407     1.93244707
H       -0.77951036     0.76152083    -0.41226685
