12

C       -0.04828263     0.09366030    -0.02281107
N       -0.04802026    -0.09465378     1.34617577
H        0.91051458     0.04274845    -0.64314344
H        0.82060998    -0.36125712     1.84610523
H       -0.85069208     0.33002736     1.87427290
H       -0.85071351    -0.48202117    -0.62029848
C       -0.04879238     0.09428756    -0.02265346
N       -0.04813631    -0.09490738     1.34538763
H        0.91079895     0.04608563    -0.64077361
H        0.81699368    -0.36687242     1.84603890
H       -0.84567915     0.33648131     1.87628730
H       -0.84470751    -0.49014737    -0.61554211
