     6
  Step:   300            Position(A)                                  Velocity(au)
C        -0.05225326     0.02821222     0.02950164     0.00005788     0.00004336     0.00007099
N        -0.04859719    -0.05531247     1.28781132    -0.00020494    -0.00003921    -0.00006975
H         0.07592884    -0.92277245    -0.48505990    -0.00152043     0.00001152    -0.00023951
H         0.15067373     0.71403031     1.93152953    -0.00039220    -0.00035263     0.00042732
H         0.09117125    -0.97279640     1.73583749     0.00267100     0.00052967     0.00047515
H        -0.23276377     0.94421863    -0.53771322     0.00139980    -0.00016033    -0.00053958
