14

C       -5.86029725    -0.65551298    -0.22617588
C       -4.58787582    -0.19748192    -0.41454643
H       -6.14388123    -0.88221367     0.79059499
H       -6.41963639    -0.80901786    -1.14657832
H       -4.19271679     0.05977982    -1.37458949
C       -3.77360814     0.01542152     0.68757860
C       -2.77813860     0.93434496     0.67563688
H       -4.23743728     0.09401235     1.61534803
H       -2.55209740     1.22691269     1.75421042
C       -1.60288615     0.84719725    -0.23463151
H       -1.62436089     0.25142268    -1.14334664
N       -0.82866123     1.91696138    -0.07396092
H       -0.46893125     2.31295913    -0.91618561
H       -1.14707103     2.50005947     0.64893575
