     6
  Step:   300            Position(A)                                  Velocity(au)
C        -0.02966664     0.02580029     0.02468391     0.00010494    -0.00008961    -0.00003766
N        -0.04697328    -0.06488529     1.29199204     0.00000451     0.00019624     0.00002209
H         0.90451862     0.18374445    -0.49326734    -0.00012913     0.00008378    -0.00053108
H         0.77774229    -0.31735592     1.84653720    -0.00041840    -0.00085598     0.00001975
H        -0.92046249     0.11564750     1.79144562    -0.00038786    -0.00109372    -0.00008911
H        -0.96846737    -0.05757899    -0.50078285    -0.00037777     0.00020669     0.00074222
