6

C   -0.03991275    0.02863283    0.01463203   -0.00014026   -0.00005198    0.00016113
N   -0.03522586   -0.05361852    1.30890543    0.00022458    0.00015253   -0.00016260
H    0.93425754   -0.00485344   -0.51266462    0.00048471    0.00000540   -0.00047625
H    0.83787287   -0.15039689    1.79302909   -0.00205076   -0.00073403    0.00008012
H   -1.00204869   -0.08236068    1.83647771   -0.00048901   -0.00072997    0.00027480
H   -1.01790634   -0.02825594   -0.58816773    0.00060556   -0.00004165    0.00046082
