6

C   -0.04006387    0.01935044    0.02485817   -0.00011914    0.00006604   -0.00034033
N   -0.05229920   -0.03832334    1.29695603    0.00011619   -0.00008701    0.00037283
H    0.95232308   -0.06406899   -0.55249403    0.00027186   -0.00019522    0.00052810
H    0.91719108   -0.17042926    1.86477192    0.00010999    0.00035925   -0.00036470
H   -0.89350858   -0.15820005    1.80851926   -0.00048626    0.00030652   -0.00049823
H   -0.98477117    0.02489299   -0.54792480   -0.00009050   -0.00004840   -0.00079076
