6

C       -0.03120315     0.04135621    -0.02346646
N       -0.03827539    -0.09308722     1.35275727
H        0.80500598    -0.38181013    -0.68015814
H        0.75759534     0.37263804     1.85961601
H       -0.94759865    -0.23519762     1.84343589
H       -0.92421693     0.37536394    -0.64962129
