6

C       -0.04276435    -0.00590191     0.02446435
N       -0.04617478    -0.02427562     1.29713564
H        0.91468339    -0.12301242    -0.50182661
H        0.81679902    -0.11036998     1.83856809
H       -0.88167494    -0.21807525     1.85919733
H       -0.91152386     0.18936994    -0.62086522
