     6
  Step:   300            Position(A)                                  Velocity(au)
C        -0.04908752     0.02011737     0.03020183    -0.00000193    -0.00002573    -0.00007810
N        -0.05497521    -0.05097414     1.28633572    -0.00005362    -0.00006607     0.00009213
H        -0.08441850    -0.92638210    -0.50838062    -0.00160687     0.00037080    -0.00060821
H         0.09719868     0.71240155     1.95324208    -0.00127172     0.00014716     0.00024846
H         0.21945880    -0.93215806     1.75814031     0.00204331     0.00082168     0.00013335
H        -0.09628396     0.94500064    -0.54621034     0.00160346    -0.00011489    -0.00012325
