6

C       -0.04176285     0.01202605     0.01218889
N       -0.04135734    -0.05803382     1.30172884
H        0.89477623    -0.05855463    -0.53757842
H        0.82365614    -0.04867308     1.84983268
H       -0.88627430    -0.05312240     1.87622130
H       -0.97273870     0.15372338    -0.53095371
