     6
  Step:   600            Position(A)                                  Velocity(au)
C        -0.11192924     0.14609905    -0.12782983    -0.00026803     0.00012445     0.00015917
N         0.02205274    -0.24181972     1.45081733    -0.00017667    -0.00004453    -0.00005092
H        -0.86933618     0.66126560    -0.65470900    -0.00044246    -0.00033682    -0.00467350
H        -0.97354168    -0.18305269     1.75524124     0.00449999     0.00072578     0.00268365
H         0.61708203     0.38906853     1.72992213    -0.00082914    -0.00186431    -0.00037037
H         1.04080368     0.08248540    -0.57642084     0.00242066     0.00061130     0.00117112
