12

C       -0.03355974     0.06938614    -0.20415823
N       -0.04120477     0.01822003     1.51444067
H        0.92665554    -0.17606297    -0.68923882
H        0.70331701    -0.70807864     1.68246465
H       -0.93733207    -0.38337674     1.84645713
H       -0.93307594    -0.48227224    -0.56010330
C       -0.03368614     0.06951766    -0.20353623
N       -0.04074828     0.01826227     1.51409434
H        0.92964182    -0.17126737    -0.68985487
H        0.69735897    -0.71211696     1.67538205
H       -0.94117048    -0.37881815     1.84625780
H       -0.93110326    -0.48974244    -0.55480424
