12

C       -0.04248954     0.07226143    -0.16731701
N       -0.04258161     0.00818236     1.48002415
H        0.78970683    -0.56939064    -0.48966657
H        0.86328408    -0.29281205     1.87945555
H       -0.76318104    -0.77841591     1.65424513
H       -1.00470988    -0.00394662    -0.72517925
C       -0.04252902     0.07194670    -0.16563654
N       -0.04279573     0.00788292     1.47832655
H        0.78545812    -0.57666121    -0.48480201
H        0.86525512    -0.28292533     1.88429445
H       -0.75644472    -0.78365635     1.65010027
H       -1.00572272     0.00658917    -0.72717196
