6

C       -0.04252902     0.07194670    -0.16563654
N       -0.04279573     0.00788292     1.47832655
H        0.78545812    -0.57666121    -0.48480201
H        0.86525512    -0.28292533     1.88429445
H       -0.75644472    -0.78365635     1.65010027
H       -1.00572272     0.00658917    -0.72717196
