     6
  Step:   300            Position(A)                                  Velocity(au)
C        -0.04710644     0.01567850     0.01442206     0.00002570     0.00004597     0.00003657
N        -0.02715752    -0.05787949     1.30184353    -0.00008628    -0.00000157    -0.00005708
H         0.20816702    -0.87633234    -0.55113746    -0.00029498    -0.00052147     0.00051614
H         0.01581269     0.80330046     1.85055612     0.00005889    -0.00009772    -0.00007900
H        -0.20661827    -0.95624154     1.75514080     0.00086484    -0.00018224    -0.00009809
H        -0.29159330     0.97698625    -0.42525916     0.00026410     0.00027546     0.00001848
