6

C       -0.04808782    -0.03731637    -0.00529314
N       -0.04373599    -0.11036228     1.33969561
H        0.87010035     0.45316616    -0.58095941
H        0.84378505     0.10771053     1.86356198
H       -0.83714007     0.38735943     1.76800830
H       -0.90890005     0.36028425    -0.71236559
