14

C   -6.02746337   -0.73485709   -0.20980511    0.00011935   -0.00046587    0.00011239
C   -4.78232993   -0.72811340    0.15521543    0.00010128   -0.00003724    0.00000676
H   -6.69074235    0.04313261   -0.54223495   -0.00029737    0.00110941   -0.00025434
H   -6.61651775   -1.67178832    0.03087502   -0.00045748   -0.00047438   -0.00033298
H   -4.28800961   -1.65141047    0.50501879    0.00030448    0.00131293    0.00019496
C   -3.87279681    0.41753084    0.04984168   -0.00013910    0.00052019   -0.00005492
C   -2.49135308    0.44280297    0.22322612   -0.00001234    0.00017937   -0.00027884
H   -4.23842925    1.41092547   -0.24231066    0.00015109   -0.00110388    0.00093599
H   -1.93164170   -0.45298761    0.56611219   -0.00019610    0.00031278    0.00040376
C   -1.84050532    1.65107292    0.01874894    0.00011574    0.00029048    0.00001959
H   -2.30458695    2.49383860   -0.45232281    0.00019407   -0.00069140    0.00036677
N   -0.51331976    1.87228350    0.11880363   -0.00020055   -0.00040718   -0.00001072
H   -0.19661355    2.87397532    0.04598075    0.00128112   -0.00064017    0.00067967
H    0.00369858    1.08405898    0.62490998   -0.00039659    0.00003073    0.00047886
