     6
  Step:   300            Position(A)                                  Velocity(au)
C        -0.03041911     0.02947149     0.01619137    -0.00003871     0.00007908    -0.00000028
N        -0.05236833    -0.07380957     1.29826491     0.00000773    -0.00012516     0.00000523
H         0.91789061    -0.04492108    -0.50316902    -0.00015582     0.00018111     0.00003379
H         0.80468696     0.02057910     1.84796306     0.00000414     0.00019527     0.00007651
H        -0.90000037    -0.12275600     1.86780350     0.00013913     0.00085650     0.00036159
H        -0.94530469     0.15183519    -0.55464426     0.00036642    -0.00043604    -0.00054127
