    14
  Step:   600            Position(A)                                  Velocity(au)
C        -5.72118176     0.22330134    -0.12038802    -0.00058159     0.00002569     0.00005486
C        -4.42531583     0.10578835     0.24343818    -0.00050619    -0.00066759     0.00035872
H        -6.57142359    -0.50629749    -0.28636593    -0.00030606     0.00025944    -0.00065416
H        -6.07151342     1.26612844    -0.05714664     0.00012061    -0.00028510    -0.00138556
H        -3.99824194     1.18942801     0.40380604    -0.00048939    -0.00065572    -0.00179997
C        -3.30102998    -0.69624600    -0.26830390    -0.00011819     0.00036752    -0.00033599
C        -2.18920585    -0.00936196    -0.47225728     0.00049152    -0.00018384    -0.00004887
H        -3.53889452    -1.71785272    -0.54856118    -0.00220826    -0.00052871    -0.00092972
H        -1.34437759    -0.10371660    -1.19532475     0.00066745     0.00176703     0.00082849
C        -2.29652924     1.39219949    -0.03485986     0.00017529    -0.00053768     0.00027307
H        -2.70656918     2.24362435    -0.47464958     0.00235649    -0.00096849     0.00142288
N        -1.41461819     1.76369064     0.87822006     0.00023610     0.00081416     0.00010710
H        -1.51991784     2.62643153     1.40510091     0.00387906     0.00148670    -0.00081189
H        -0.87040536     1.03062418     1.33587941    -0.00087622    -0.00052191    -0.00175457
