12

C       -0.04457357     0.05796935     0.01905073
N       -0.03180700    -0.02832223     1.31621290
H        0.83027434     0.14947758    -0.67714172
H        0.63270758    -0.70148304     1.75988389
H       -0.90414375     0.16563122     1.87006397
H       -0.79861913    -0.58059922    -0.57831098
C       -0.04547008     0.05830774     0.01780443
N       -0.03141781    -0.02894723     1.31685931
H        0.83249510     0.15764466    -0.67391685
H        0.62954052    -0.70726248     1.76146104
H       -0.90125750     0.17594635     1.86905593
H       -0.79528456    -0.58864907    -0.57623677
