6

C       -0.03003721    -0.00184111     0.02765866
N       -0.02873406    -0.04835875     1.28804319
H        0.06397548    -0.85079903    -0.64347847
H       -0.31687887     0.76793437     1.85359413
H       -0.14365812    -0.88414669     1.86974955
H       -0.05913283     0.99119202    -0.41651632
