     6
  Step:   300            Position(A)                                  Velocity(au)
C        -0.06205656     0.00009533     0.02550698     0.00007317    -0.00008439     0.00008684
N        -0.02318225    -0.04864173     1.29098563    -0.00027441     0.00004008    -0.00014935
H         0.19890680     0.97884792    -0.38909346    -0.00111130     0.00026438     0.00061066
H        -0.02703712    -0.93782319     1.79612049     0.00027984     0.00043743     0.00053894
H         0.02286860     0.83224685     1.82702158     0.00266514    -0.00026914     0.00034511
H        -0.34605779    -0.86826419    -0.58591123     0.00110773     0.00001593    -0.00045417
