14

C       -5.08914062     0.17660934     0.73596013
C       -4.52276513    -0.65703818    -0.09151829
H       -5.11845785     1.22203164     0.33123543
H       -5.39085121     0.05489281     1.74523485
H       -4.42855060    -1.72991745     0.15349719
C       -3.71980948     0.06934227    -1.23811965
C       -2.79288784     0.88574176    -0.71630040
H       -4.10834871     0.05184487    -2.31900162
H       -2.62434765     1.85580966    -1.20408007
C       -2.28187309     1.32747429     0.55809777
H       -2.79135689     2.13709446     1.13440761
N       -1.08428718     1.11713627     0.86530373
H       -0.67244833     1.58368053     1.67338298
H       -0.43870338     0.46720651     0.43291795
