     6
  Step:   300            Position(A)                                  Velocity(au)
C        -0.06941645     0.01586514     0.01380780     0.00002148    -0.00008942    -0.00001884
N         0.00681444    -0.05370932     1.30691920    -0.00012998     0.00002040    -0.00000607
H         0.23852270     0.92031572    -0.50809746     0.00053476     0.00025263     0.00096358
H        -0.13246684    -0.96424545     1.76581330     0.00131171    -0.00015917    -0.00001102
H        -0.19778408     0.80333658     1.83005912     0.00023583     0.00042857    -0.00051648
H        -0.38874275    -0.87187091    -0.52166807    -0.00053197     0.00026011    -0.00012726
