12

C       -0.05772659     0.09996751    -0.02158394
N       -0.03769085    -0.06744523     1.33972728
H        0.90788169    -0.00717781    -0.61862454
H        0.72074721    -0.60689879     1.82208770
H       -0.84588107     0.29828286     1.89547541
H       -0.78403591    -0.60796600    -0.56702538
C       -0.05833856     0.10006694    -0.02155913
N       -0.03785137    -0.06768360     1.33906084
H        0.90923148    -0.00070908    -0.61600221
H        0.71667412    -0.61222316     1.82333164
H       -0.83874912     0.30505771     1.89677592
H       -0.77892170    -0.61375748    -0.56322668
