6

C       -0.05833856     0.10006694    -0.02155913
N       -0.03785137    -0.06768360     1.33906084
H        0.90923148    -0.00070908    -0.61600221
H        0.71667412    -0.61222316     1.82333164
H       -0.83874912     0.30505771     1.89677592
H       -0.77892170    -0.61375748    -0.56322668
