12

C       -0.03319644     0.05665118    -0.13323319
N       -0.05279292    -0.00930860     1.44429969
H        0.74950818    -0.60134845    -0.57126705
H        0.85899752    -0.10361388     1.96001019
H       -0.73948483    -0.74179410     1.74951637
H       -0.95275742     0.23129405    -0.72910059
C       -0.03296892     0.05644132    -0.13036791
N       -0.05331612    -0.00899411     1.44198264
H        0.74346701    -0.60902334    -0.56775565
H        0.85926138    -0.09752026     1.95962903
H       -0.73112691    -0.74894184     1.74285834
H       -0.95077854     0.23815343    -0.72751695
