6

C       -0.04463175     0.00393204     0.01252937
N       -0.03734625    -0.04759663     1.30252697
H        0.27755673     0.94639399    -0.42863699
H        0.01132146    -0.95163363     1.78066069
H       -0.08499649     0.82707142     1.82921598
H       -0.36602988    -0.87703776    -0.53888467
