     6
  Step:   300            Position(A)                                  Velocity(au)
C        -0.02135239     0.02941991     0.02871519    -0.00005920     0.00004216     0.00010009
N        -0.03959039    -0.05804544     1.28874351     0.00020054    -0.00003961    -0.00009413
H         0.22041794     0.93721103    -0.52904257    -0.00146549    -0.00004927    -0.00057845
H        -0.24455031    -0.96650421     1.73292641    -0.00272464     0.00064804     0.00043404
H        -0.17818969     0.72128347     1.93205528     0.00048311    -0.00043448     0.00046588
H        -0.20600378    -0.90571224    -0.49490230     0.00162572    -0.00011620    -0.00020615
