14

C       -5.95664008    -1.05141996    -0.15031445
C       -4.92716744    -0.37465442     0.35768558
H       -6.17442648    -1.07515493    -1.27281646
H       -6.55568154    -1.79997128     0.44474088
H       -4.56712799    -0.39592488     1.39216868
C       -3.87054911     0.57669892    -0.20743700
C       -2.58396474     0.34734680    -0.07069050
H       -4.13190512     1.70080509     0.01113094
H       -1.98879743    -0.54966314     0.14299379
C       -1.79339808     1.59223600     0.21233804
H       -2.55803835     2.35866502     0.37425140
N       -0.45097294     1.83359571     0.12975692
H       -0.06621192     2.82296505     0.06035990
H        0.31012110     1.10825091     0.37086451
