    14
  Step:   600            Position(A)                                  Velocity(au)
C        -5.38859385    -0.83771554     0.68932601     0.00001161    -0.00005358     0.00001324
C        -5.28261323    -0.01356235    -0.40486572    -0.00031956     0.00014219    -0.00020907
H        -4.73135791    -1.01475761     1.53824957     0.00162704    -0.00122306     0.00024290
H        -6.30619937    -1.31309362     0.87459028    -0.00075799     0.00073587     0.00124642
H        -5.95380347     0.00128384    -1.28974738     0.00106361     0.00138294     0.00127163
C        -3.88827410     0.28366305    -0.80558523    -0.00012967     0.00009557     0.00003806
C        -2.59826825     0.43550331    -0.17126743    -0.00039069    -0.00048727     0.00012345
H        -3.84353090     0.16172222    -1.88200040     0.00126455     0.00130204    -0.00110510
H        -1.80193127     0.01831159    -0.76986166     0.00267783    -0.00154594     0.00239631
C        -1.89108295     1.45759683     0.65683178     0.00073626    -0.00058636    -0.00081762
H        -2.40103722     1.68201760     1.67790285    -0.00304119     0.00122930     0.00261397
N        -0.55558244     1.70256824     0.35429992    -0.00015476     0.00050121     0.00030336
H         0.09499296     2.24253724     1.00218448     0.00061058     0.00119381     0.00053363
H        -0.32299810     1.40899360    -0.63726506    -0.00019684     0.00055886    -0.00126360
