     6
  Step:   300            Position(A)                                  Velocity(au)
C        -0.05138642     0.02069851     0.01922832     0.00005730     0.00007222     0.00014048
N        -0.03871956    -0.05258962     1.29713018    -0.00020475    -0.00002116    -0.00013630
H         0.16628427    -0.91510028    -0.49125460    -0.00103185    -0.00026378     0.00026098
H         0.10075124     0.76008566     1.90116391     0.00005547    -0.00045215     0.00039631
H        -0.02789518    -0.98051197     1.72664730     0.00220822     0.00016770     0.00029935
H        -0.30169353     0.94990504    -0.49901521     0.00093065    -0.00001822    -0.00073651
