6

C       -0.03004752     0.06703715    -0.14658104
N       -0.03653922     0.00698678     1.46319761
H        0.91373029    -0.01265742    -0.73458769
H        0.58286130    -0.84102502     1.65379138
H       -0.96379932    -0.13659110     1.91061233
H       -0.87992082    -0.57542511    -0.52421748
