     6
  Step:   300            Position(A)                                  Velocity(au)
C        -0.04994649    -0.00364615     0.02622136     0.00004997    -0.00004525     0.00012113
N        -0.04938666    -0.04779028     1.28903144    -0.00017988     0.00004698    -0.00011082
H         0.13205264     0.98214936    -0.39851998    -0.00174488     0.00003499    -0.00029115
H         0.05700556    -0.89309874     1.85120248    -0.00070715     0.00045222     0.00054645
H         0.15485239     0.80548681     1.83469312     0.00274903    -0.00076378     0.00043210
H        -0.27538728    -0.85675268    -0.62062568     0.00160736     0.00016287    -0.00059073
