14

C       -5.06298140    -1.37763233    -0.56961705
C       -4.82170544    -0.04526541    -0.28441140
H       -5.27615134    -2.19377840     0.16876068
H       -5.23907990    -1.61489001    -1.58815047
H       -4.87803634     0.55997436    -1.17329767
C       -4.23606590     0.87609699     0.73013853
C       -2.94455266     1.47650433     0.78395033
H       -4.87184877     1.72283856     1.21669599
H       -2.98678679     2.24883657     1.51260316
C       -1.74720679     0.80887959     0.38668245
H       -1.91933970    -0.28997295     0.26188675
N       -0.72252837     1.33005961    -0.46401530
H       -0.18130529     0.63738748    -1.00484203
H       -0.40911906     2.37067562    -0.40501632
