12

C       -0.03902422    -0.02584611    -0.11888255
N       -0.04739797    -0.13398929     1.41697189
H        0.93484276     0.33920078    -0.46304263
H        0.81028227     0.33863615     1.78613975
H       -0.85959597     0.41065058     1.75380785
H       -0.97479412     0.41168560    -0.45900822
C       -0.03876470    -0.02598949    -0.11772644
N       -0.04741837    -0.13447826     1.41599918
H        0.93473039     0.33932903    -0.46079357
H        0.80929630     0.34209187     1.78149877
H       -0.86053723     0.41385718     1.75257300
H       -0.97556351     0.41339837    -0.45564071
