6

C       -0.03876470    -0.02598949    -0.11772644
N       -0.04741837    -0.13447826     1.41599918
H        0.93473039     0.33932903    -0.46079357
H        0.80929630     0.34209187     1.78149877
H       -0.86053723     0.41385718     1.75257300
H       -0.97556351     0.41339837    -0.45564071
