12

C       -0.03784918    -0.05565652    -0.00640827
N       -0.04489845    -0.06757781     1.33475584
H        0.83394638     0.42171448    -0.61528985
H        0.86646987    -0.02519244     1.83061669
H       -0.94237917     0.13667154     1.82625670
H       -0.89604587     0.39931802    -0.62142645
C       -0.03782704    -0.05684478    -0.00869213
N       -0.04506156    -0.06675434     1.33640540
H        0.83754256     0.42689217    -0.61252290
H        0.86920505    -0.02894285     1.83077975
H       -0.94286571     0.13559679     1.82545813
H       -0.89988794     0.40168155    -0.61926607
