     6
  Step:   600            Position(A)                                  Velocity(au)
C         0.10294730     0.08446742    -0.10572696     0.00046439    -0.00056172     0.00013338
N        -0.15563800    -0.16109295     1.36163442    -0.00027858     0.00046825    -0.00045357
H         1.15624870     0.49843810     0.16564202    -0.00043998    -0.00173490    -0.00228222
H         0.63961636     0.17698323     1.70094186    -0.00614402     0.00079997     0.00027490
H        -1.17371595    -0.51750293     1.66189745     0.00519194    -0.00437386     0.00113788
H        -0.89887852     0.40463263    -0.29862071    -0.00027034     0.00549536     0.00558296
