6

C       -0.04755953     0.10087372    -0.02434551
N       -0.05055217    -0.09856183     1.34742914
H        0.90086577     0.02364272    -0.64722625
H        0.85003190    -0.28845066     1.83337327
H       -0.85982348     0.25758192     1.89345371
H       -0.83480311    -0.49492676    -0.62179458
