     6
  Step:     0            Position(A)                                  Velocity(au)
C        -0.03366706     0.00752262     0.02260663    -0.00003776     0.00000447    -0.00022820
N        -0.04112264    -0.05946567     1.29143994     0.00003133    -0.00003325     0.00017878
H         0.92686382     0.03877299    -0.54873637     0.00020089    -0.00003124    -0.00003237
H         0.78864930    -0.07512111     1.84931068     0.00029421     0.00025974    -0.00031291
H        -0.95205041    -0.01231922     1.86456027    -0.00088350     0.00003371     0.00021802
H        -1.00376728     0.11560573    -0.48877873     0.00040297     0.00014660     0.00036211
     6
  Step:     1            Position(A)                                  Velocity(au)
C        -0.03386906     0.00755497     0.02118903    -0.00003579     0.00000726    -0.00028875
N        -0.04100185    -0.05965712     1.29258342     0.00001256    -0.00003672     0.00023848
H         0.92792309     0.03861610    -0.54903346     0.00018613    -0.00002629    -0.00007585
H         0.79062839    -0.07369521     1.84791422     0.00042879     0.00026212    -0.00019732
H        -0.95648551    -0.01214745     1.86553136    -0.00073265     0.00002874     0.00013437
H        -1.00164201     0.11644005    -0.48705432     0.00036975     0.00015924     0.00026562
     6
  Step:     2            Position(A)                                  Velocity(au)
C        -0.03405851     0.00760198     0.01944888    -0.00003320     0.00000982    -0.00034616
N        -0.04098531    -0.05986723     1.29404789    -0.00000656    -0.00004010     0.00029617
H         0.92889935     0.03848551    -0.54956586     0.00017073    -0.00002164    -0.00011858
H         0.79333850    -0.07225456     1.84715284     0.00056012     0.00026538    -0.00008213
H        -0.96006265    -0.01200493     1.86602971    -0.00057191     0.00002311     0.00004638
H        -0.99972373     0.11734722    -0.48587397     0.00032779     0.00017336     0.00016355
     6
  Step:     3            Position(A)                                  Velocity(au)
C        -0.03423195     0.00766237     0.01740498    -0.00002997     0.00001215    -0.00039987
N        -0.04107356    -0.06009549     1.29582097    -0.00002557    -0.00004338     0.00035137
H         0.92978947     0.03837951    -0.55032970     0.00015477    -0.00001731    -0.00016068
H         0.79675127    -0.07079420     1.84701646     0.00068444     0.00026952     0.00003002
H        -0.96273736    -0.01189478     1.86603834    -0.00040441     0.00001699    -0.00004366
H        -0.99805882     0.11833508    -0.48526651     0.00027759     0.00018884     0.00005640
     6
  Step:     4            Position(A)                                  Velocity(au)
C        -0.03438602     0.00773473     0.01507903    -0.00002614     0.00001420    -0.00044932
N        -0.04126469    -0.06034126     1.29788774    -0.00004400    -0.00004652     0.00040358
H         0.93059070     0.03829639    -0.55132176     0.00013830    -0.00001327    -0.00020222
H         0.80081816    -0.06930925     1.84748093     0.00079806     0.00027447     0.00013659
H        -0.96448214    -0.01181927     1.86555258    -0.00023333     0.00001052    -0.00013346
H        -0.99669018     0.11941085    -0.48525766     0.00021992     0.00020553    -0.00005513
     6
  Step:     5            Position(A)                                  Velocity(au)
C        -0.03451757     0.00781755     0.01249552    -0.00002175     0.00001597    -0.00049397
N        -0.04155435    -0.06060379     1.30023069    -0.00006142    -0.00004951     0.00045228
H         0.93130058     0.03823448    -0.55253926     0.00012137    -0.00000955    -0.00024324
H         0.80547120    -0.06779517     1.84850887     0.00089747     0.00028016     0.00023520
H        -0.96528679    -0.01177981     1.86458010    -0.00006198     0.00000388    -0.00022068
H        -0.99565584     0.12058082    -0.48586892     0.00015585     0.00022323    -0.00017010
     6
  Step:     6            Position(A)                                  Velocity(au)
C        -0.03462371     0.00790922     0.00968159    -0.00001688     0.00001743    -0.00053333
N        -0.04193580    -0.06088221     1.30282960    -0.00007738    -0.00005231     0.00049692
H         0.93191682     0.03819206    -0.55397954     0.00010402    -0.00000614    -0.00028370
H         0.81062450    -0.06624804     1.85005091     0.00097954     0.00028643     0.00032377
H        -0.96515934    -0.01177692     1.86314125     0.00010609    -0.00000278    -0.00030292
H        -0.99498728     0.12185004    -0.48711623     0.00008674     0.00024167    -0.00028729
     6
  Step:     7            Position(A)                                  Velocity(au)
C        -0.03470203     0.00800807     0.00666685    -0.00001161     0.00001859    -0.00056693
N        -0.04240000    -0.06117547     1.30566141    -0.00009145    -0.00005489     0.00053694
H         0.93243740     0.03816741    -0.55563978     0.00008631    -0.00000304    -0.00032351
H         0.81617639    -0.06466477     1.85204732     0.00104158     0.00029312     0.00040053
H        -0.96412729    -0.01181015     1.86126950     0.00026710    -0.00000924    -0.00037770
H        -0.99470792     0.12322200    -0.48900870     0.00001424     0.00026052    -0.00040528
     6
  Step:     8            Position(A)                                  Velocity(au)
C        -0.03475066     0.00811242     0.00348316    -0.00000607     0.00001942    -0.00059439
N        -0.04293569    -0.06148236     1.30870015    -0.00010325    -0.00005723     0.00057180
H         0.93286053     0.03815877    -0.55751659     0.00006831    -0.00000029    -0.00036252
H         0.82201235    -0.06304331     1.85442997     0.00108155     0.00030000     0.00046410
H        -0.96223907    -0.01187797     1.85901180     0.00041701    -0.00001532    -0.00044248
H        -0.99483158     0.12469836    -0.49154722    -0.00005972     0.00027940    -0.00052237
     6
  Step:     9            Position(A)                                  Velocity(au)
C        -0.03476846     0.00822056     0.00016430    -0.00000040     0.00001995    -0.00061538
N        -0.04352954    -0.06180151     1.31191691    -0.00011241    -0.00005928     0.00060097
H         0.93318470     0.03816429    -0.55960578     0.00005008     0.00000213    -0.00040053
H         0.82800849    -0.06138275     1.85712460     0.00109814     0.00030687     0.00051360
H        -0.95956524    -0.01197771     1.85642884     0.00055165    -0.00002078    -0.00049476
H        -0.99536126     0.12627864    -0.49472342    -0.00013304     0.00029791    -0.00063675
     6
  Step:    10            Position(A)                                  Velocity(au)
C        -0.03475504     0.00833082    -0.00325451     0.00000525     0.00002017    -0.00062972
N        -0.04416641    -0.06213142     1.31528008    -0.00011862    -0.00006104     0.00062399
H         0.93340882     0.03818208    -0.56190198     0.00003171     0.00000418    -0.00043731
H         0.83403562    -0.05968344     1.86005330     0.00109082     0.00031349     0.00054860
H        -0.95619921    -0.01210552     1.85359478     0.00066683    -0.00002542    -0.00053217
H        -0.99628825     0.12796009    -0.49851886    -0.00020352     0.00031561    -0.00074648
     6
  Step:    11            Position(A)                                  Velocity(au)
C        -0.03471088     0.00844162    -0.00673725     0.00001073     0.00002011    -0.00063736
N        -0.04482961    -0.06247046     1.31875562    -0.00012166    -0.00006248     0.00064049
H         0.93353224     0.03821012    -0.56439852     0.00001331     0.00000586    -0.00047258
H         0.83996350    -0.05794698     1.86313705     0.00105990     0.00031966     0.00056915
H        -0.95225704    -0.01225632     1.85059641     0.00075857    -0.00002901    -0.00055260
H        -0.99759179     0.12973761    -0.50290462    -0.00026896     0.00033208    -0.00084966
     6
  Step:    12            Position(A)                                  Velocity(au)
C        -0.03463734     0.00855146    -0.01024777     0.00001586     0.00001979    -0.00063838
N        -0.04550130    -0.06281691     1.32230769    -0.00012136    -0.00006359     0.00065025
H         0.93355485     0.03824634    -0.56708726    -0.00000502     0.00000714    -0.00050610
H         0.84566501    -0.05617607     1.86629811     0.00100644     0.00032519     0.00057576
H        -0.94787599    -0.01242386     1.84753158     0.00082333    -0.00003136    -0.00055430
H        -0.99923933     0.13160379    -0.50784153    -0.00032729     0.00034694    -0.00094449
     6
  Step:    13            Position(A)                                  Velocity(au)
C        -0.03453661     0.00865898    -0.01375052     0.00002052     0.00001923    -0.00063302
N        -0.04616291    -0.06316905     1.32589928    -0.00011767    -0.00006438     0.00065318
H         0.93347713     0.03828854    -0.56995858    -0.00002315     0.00000801    -0.00053762
H         0.85102034    -0.05437442     1.86946242     0.00093228     0.00032994     0.00056938
H        -0.94321190    -0.01260083     1.84450687     0.00085826    -0.00003229    -0.00053609
H        -1.00118743     0.13354912    -0.51328087    -0.00037670     0.00035984    -0.00102940
