12

C       -0.03559823    -0.02652158    -0.12339327
N       -0.04040439    -0.12743381     1.42785621
H        0.91339899     0.01605497    -0.70099264
H        0.61403235     0.64875699     1.70308845
H       -0.94361888     0.01870104     1.96349224
H       -0.81108790     0.73360703    -0.44518986
C       -0.03577548    -0.02662325    -0.12053314
N       -0.04015935    -0.12707336     1.42541959
H        0.91211097     0.00790571    -0.70104230
H        0.60793957     0.65523682     1.69992758
H       -0.94237231     0.01023938     1.96200461
H       -0.80624669     0.73994063    -0.44071307
