     6
  Step:   300            Position(A)                                  Velocity(au)
C        -0.03368860     0.01493903     0.01719710    -0.00001580    -0.00000022     0.00013746
N        -0.04539152    -0.05390625     1.29872915     0.00002773     0.00000205    -0.00009253
H         0.11979768     0.95441601    -0.50563563     0.00107356    -0.00038519    -0.00020800
H        -0.20197909    -0.92672482     1.80797494     0.00108295    -0.00011595    -0.00001690
H         0.06735644     0.75490059     1.91855705    -0.00130548     0.00015004     0.00005967
H        -0.16590104    -0.88129181    -0.58137232    -0.00104801     0.00032533    -0.00018686
