6

C       -0.04419780     0.05548738    -0.00795230
N       -0.04466204    -0.05145437     1.33158568
H        0.84927694     0.28076102    -0.67226962
H        0.62660012    -0.69817480     1.82020741
H       -0.76902032     0.37543372     1.95119032
H       -0.77251537    -0.57397146    -0.61651127
