6

C       -0.06682751     0.01438059     0.01281871
N        0.00145401    -0.05865556     1.30690244
H        0.16845338    -0.86063554    -0.59005757
H       -0.02883885     0.80990543     1.85540210
H       -0.25834802    -0.94801121     1.74308872
H       -0.31808373     0.97270778    -0.43032490
