6

C   -0.03448497    0.01317014    0.01787595    0.00006902   -0.00005499    0.00009827
N   -0.04741800   -0.06257190    1.29922036    0.00003714   -0.00007745   -0.00015401
H    0.91403675    0.01245143   -0.54803329   -0.00072382    0.00020669    0.00072328
H    0.86615011   -0.07019582    1.89618871   -0.00085907    0.00067271   -0.00022265
H   -0.90058920   -0.00297323    1.80440399    0.00034592    0.00036430    0.00065916
H   -1.02267323    0.10352511   -0.52795220   -0.00010159    0.00048784   -0.00019069
