6

C   -0.04074009    0.00243101    0.00289241    0.00006678    0.00005280    0.00026658
N   -0.05227118   -0.05093629    1.30577645    0.00009367   -0.00009945   -0.00019571
H    0.94540707    0.05458798   -0.49581663   -0.00037315   -0.00022621    0.00005229
H    0.87704744   -0.14396646    1.87520933   -0.00119055    0.00057610   -0.00000840
H   -0.85957476   -0.01863927    1.85571192    0.00025224    0.00038570   -0.00003746
H   -0.96397689    0.11710037   -0.52305837   -0.00078600    0.00001724   -0.00046331
