6

C       -0.06078481     0.00481535     0.02108378
N       -0.01684263    -0.04942608     1.29656655
H        0.23633919     0.96036014    -0.42360215
H       -0.04816837    -0.95222876     1.77103866
H       -0.07843412     0.82592979     1.83279495
H       -0.36431510    -0.87439744    -0.55697175
