6

C        0.00086038    -0.01993153    -0.04951650
N       -0.12354173    -0.12162415     1.32628230
H        0.28099818    -0.77823352    -0.81477761
H        1.19143095     0.52603230     2.39126940
H       -0.47152529     0.62632411     1.96896967
H       -0.50728439     0.88377159    -0.49378357
