6

C       -0.02390754     0.05150973     0.01717243
N       -0.04587266    -0.04519380     1.30937894
H        0.59005222    -0.70317417    -0.57540795
H        0.72164165     0.30741148     1.93069117
H       -0.75270419    -0.64294794     1.80888453
H       -0.84957638     0.38316227    -0.67233221
