14

C       -5.34664337    -0.75278714    -0.66033748
C       -4.44360002     0.19968142    -0.48941421
H       -5.69324879    -1.24148788     0.24228219
H       -5.55134843    -1.23694265    -1.64494204
H       -3.95859962     0.61351772    -1.40385046
C       -3.87061324     0.46264702     0.92478791
C       -2.66536820     0.79632483     1.22701543
H       -4.46674494     0.31811130     1.90617158
H       -2.29053142     0.92679221     2.25900070
C       -1.79253201     0.57520211     0.06585329
H       -1.57420956    -0.50363663    -0.01453479
N       -1.31283152     1.72741064    -0.53733195
H       -0.70050433     1.84676433    -1.34977440
H       -1.59118816     2.64803950    -0.23891146
