6

C       -0.03100090     0.00814210    -0.00320934
N       -0.05275795    -0.04909407     1.31928779
H        0.93255846     0.04882058    -0.57171944
H        0.87477778    -0.15078485     1.85314908
H       -0.90535949    -0.08042182     1.83722120
H       -1.01236106     0.09781912    -0.52165614
