6

C        0.01540817    -0.04409748     0.00529418
N       -0.07799960    -0.03210058     1.40673820
H        0.05684269     0.90944722    -0.74522112
H       -0.96466432    -0.64169324     1.40016956
H        0.72475872     0.70169025     1.50967336
H       -0.12924211    -0.66806179    -0.88419737
