12

C       -0.04215842    -0.00444563     0.00725372
N       -0.05517951    -0.01509347     1.33242156
H        0.83537808    -0.31741238    -0.67131640
H        0.84515242     0.10359294     1.86328828
H       -0.78026745    -0.61208675     1.78468971
H       -0.84404696     0.41883899    -0.68684313
C       -0.04204591    -0.00450844     0.00565020
N       -0.05549876    -0.01548018     1.33342701
H        0.83586394    -0.32564536    -0.67039710
H        0.84377386     0.11364611     1.86298217
H       -0.77689035    -0.61777402     1.78601152
H       -0.84343568     0.42882845    -0.68364253
