6

C       -0.02893439     0.06426436    -0.08457169
N       -0.03691989     0.00517210     1.40672969
H        0.87864616     0.07769084    -0.73733340
H        0.52306787    -0.87436123     1.62380309
H       -0.93489636    -0.07633550     1.93438273
H       -0.82192479    -0.63442393    -0.46945451
