6

C       -0.03420810     0.00569228     0.02761965
N       -0.04069539    -0.05006373     1.28745315
H        0.02472673    -0.89607168    -0.58853997
H       -0.14733579     0.78857433     1.88224374
H       -0.04850056    -0.92357339     1.82624247
H       -0.06869707     0.98915619    -0.44791890
