    14
  Step:   600            Position(A)                                  Velocity(au)
C        -5.15898961    -0.61198990    -0.91539980     0.00020567    -0.00012878    -0.00038993
C        -4.66599778    -0.62841200     0.31807402    -0.00031981     0.00011328     0.00088230
H        -5.45260282     0.28215293    -1.52132472     0.00022826     0.00084782    -0.00338098
H        -5.34920871    -1.56230102    -1.44296419     0.00153954     0.00104913    -0.00215652
H        -4.66082968    -1.60360809     0.85097333     0.00172158    -0.00099029     0.00237992
C        -4.15831576     0.48847474     1.08980400    -0.00017676     0.00005696    -0.00033649
C        -2.77247712     0.90491062     0.80643377    -0.00027070    -0.00062147     0.00086952
H        -4.65533891     0.74455063     1.98430704    -0.00063522     0.00047680    -0.00098045
H        -2.57534234     1.38487546     1.75038471     0.00093352    -0.00109435     0.00001904
C        -1.96075051     0.99858349    -0.38686242     0.00014569     0.00029540     0.00026499
H        -2.17781506     0.44546349    -1.36147903    -0.00307300     0.00162392    -0.00178044
N        -0.80699422     1.79163788    -0.38280805    -0.00011595     0.00003268    -0.00054669
H        -0.52456484     2.20229035    -1.29279872     0.00392647     0.00142036    -0.00119267
H        -0.33556464     2.12945661     0.49856931     0.00192618    -0.00039587    -0.00068715
