     6
  Step:   300            Position(A)                                  Velocity(au)
C        -0.04616858    -0.00187068     0.02763429     0.00001829     0.00001227    -0.00005768
N        -0.05860559    -0.04612488     1.28820097    -0.00007066     0.00005272     0.00008067
H         0.08433510     0.98205319    -0.41852800    -0.00169570     0.00004334    -0.00053999
H        -0.02783396    -0.88571385     1.87413189    -0.00121709     0.00018870     0.00024963
H         0.32232613     0.73365864     1.85102487     0.00207177    -0.00104738     0.00004295
H        -0.22720572    -0.83652372    -0.64515675     0.00160504    -0.00006346    -0.00018628
