6

C   -0.03428947    0.01945264    0.01064372    0.00010549    0.00013775   -0.00004685
N   -0.03601641   -0.05463321    1.30994216   -0.00010731   -0.00014769    0.00008507
H    0.89857994   -0.02959879   -0.55568617   -0.00010377   -0.00038728    0.00006784
H    0.79831316   -0.11664938    1.83084941    0.00036926    0.00056168    0.00032133
H   -0.99703560   -0.08056168    1.79836526    0.00108147    0.00061258   -0.00040837
H   -1.00370362    0.08443527   -0.51173599   -0.00111289   -0.00037611   -0.00060470
