6

C       -0.02618432     0.00363033     0.02594401
N       -0.04328440    -0.05155260     1.28685140
H        0.11061834    -0.87311938    -0.60548626
H       -0.18240621     0.79188236     1.86552929
H       -0.11698179    -0.92292377     1.82118387
H       -0.11064898     1.00751390    -0.38086994
