12

C       -0.04077867     0.09526145     0.00356032
N       -0.03907851    -0.04238280     1.33382979
H        0.83552486    -0.27439004    -0.65053328
H        0.81837832    -0.41069775     1.77761733
H       -0.96941564    -0.10578589     1.80271426
H       -0.86846694    -0.42508109    -0.61556179
C       -0.04102467     0.09640453     0.00148455
N       -0.03891325    -0.04352183     1.33523917
H        0.84017603    -0.27364384    -0.64921385
H        0.81865178    -0.41027953     1.77790126
H       -0.97140731    -0.09884543     1.80430693
H       -0.87076506    -0.43097861    -0.61360811
