14

C       -5.72670465    -0.86899924    -0.16805428
C       -4.43265392    -0.51341136    -0.39393633
H       -6.18154291    -0.68771240     0.83750752
H       -6.35849210    -1.65845579    -0.71334402
H       -3.65323069    -0.82102976    -1.15523155
C       -4.10146766     0.50965297     0.48096277
C       -2.88884223     1.20641613     0.49670242
H       -4.97326810     0.91740247     1.05157105
H       -2.85928588     2.08925090     1.16104699
C       -1.66910783     0.91021355    -0.07698280
H       -1.29127952     0.03523965    -0.80128369
N       -0.71264999     1.71297481     0.04218963
H        0.24984203     1.36336006    -0.17521014
H       -0.75706114     2.77616362     0.18649676
