     6
  Step:   300            Position(A)                                  Velocity(au)
C        -0.01021178     0.01323683     0.02047780    -0.00001885    -0.00000907    -0.00006526
N        -0.07845009    -0.05363408     1.29714437     0.00004693    -0.00003063     0.00007068
H         0.18264203    -0.89317015    -0.55533933     0.00110083     0.00021318    -0.00005181
H         0.00106096     0.79005110     1.87067809     0.00090288     0.00034846    -0.00074810
H        -0.04062888    -0.93973822     1.81134501    -0.00142322    -0.00012617     0.00013836
H        -0.14416870     0.96065284    -0.50422856    -0.00100808     0.00009824     0.00045699
