6

C       -0.04435249    -0.02348313    -0.17185559
N       -0.05250224    -0.13618710     1.47328780
H        0.82539113     0.62870265    -0.42415612
H        0.88087010     0.00515223     1.90424456
H       -0.68375883     0.70580697     1.70625165
H       -0.97733834     0.16289826    -0.71976509
