6

C       -0.04968178    -0.00275468     0.02151096
N       -0.05846155    -0.04221400     1.29598545
H       -0.01360788     0.98072324    -0.44585818
H       -0.02002470    -0.88716870     1.87592431
H        0.37318931     0.71109025     1.83790421
H       -0.14808510    -0.85497615    -0.64171372
