     6
  Step:   300            Position(A)                                  Velocity(au)
C        -0.03295115     0.02229377     0.02766207     0.00006475    -0.00006635     0.00000959
N        -0.04823818    -0.06789442     1.29097520     0.00001352     0.00016180    -0.00001160
H         0.91031941     0.16353644    -0.48457361    -0.00033880     0.00073891    -0.00021502
H         0.80246460    -0.18888291     1.85601217    -0.00027067    -0.00153368    -0.00001358
H        -0.91617511     0.09691272     1.79846204    -0.00025260    -0.00005864    -0.00038842
H        -0.94656818    -0.06352088    -0.54731072    -0.00009736    -0.00060437     0.00066403
