6

C       -0.03500671     0.01949164     0.02230001
N       -0.04804146    -0.05932389     1.29529492
H        0.27377738     0.94686663    -0.44599244
H        0.04696380    -0.96395462     1.75477130
H       -0.08846747     0.78900322     1.86164591
H       -0.36046361    -0.84957587    -0.54399716
