14

C       -5.91798399    -0.81993485    -0.21949750
C       -4.74275486    -0.63597065     0.46168901
H       -5.88960995    -0.46718179    -1.33986741
H       -6.84297800    -1.22935251     0.11479795
H       -4.41265685    -1.05878618     1.46170562
C       -3.88834598     0.35575108    -0.21344493
C       -2.47381889     0.56919086    -0.01371747
H       -4.44838093     1.38284810    -0.57693888
H       -2.00600437    -0.36027340     0.34320630
C       -1.93939550     1.75013743     0.14785190
H       -2.26505079     2.65954578     0.45789602
N       -0.58339941     1.71343284     0.18016372
H        0.06846867     2.50878171     0.23260180
H       -0.11307589     0.86821041    -0.12361550
