6

C       -0.03950348     0.01037134    -0.19449022
N       -0.04274819    -0.08386428     1.48675783
H        0.92127780    -0.24422713    -0.70893709
H        0.77345690     0.39079605     1.91661357
H       -0.93669349    -0.31093623     1.99479266
H       -0.90620293     0.53642594    -0.65340245
