14

C       -5.65918526    -0.32379233    -0.69159627
C       -4.39299451    -0.45894799    -0.37843179
H       -6.32573556     0.05095674     0.06427625
H       -6.07358329    -0.68551372    -1.63796179
H       -3.76656519    -0.99280803    -1.15436850
C       -3.80080381     0.09636672     0.83758138
C       -2.78762280     0.97824575     1.09595672
H       -4.22423771    -0.48502566     1.64037268
H       -2.64437861     1.03446274     2.24004815
C       -1.61830604     1.36497437     0.50104434
H       -0.81000356     1.56729090     1.14462896
N       -1.18658824     1.39994567    -0.80225001
H       -0.36432377     1.95111232    -0.86674500
H       -1.70091248     1.00290994    -1.52874252
