6

C       -0.04246515     0.01304120     0.02106109
N       -0.03800883    -0.05262456     1.29316085
H        0.11702220    -0.92991146    -0.52096497
H        0.00461258     0.79643084     1.85954744
H       -0.09939580    -0.95692539     1.77543058
H       -0.20096369     0.99651689    -0.44314609
