     6
  Step:   120            Position(A)                                  Velocity(au)
C        -0.03492268    -0.01892179    -0.16298566    -0.00001410    -0.00000080     0.00037412
N        -0.04065091    -0.12974670     1.46447784     0.00003542    -0.00004878    -0.00025977
H         0.91421079    -0.00237383    -0.73308936    -0.00013825    -0.00127102    -0.00003927
H         0.65966486     0.60056865     1.76557777    -0.00105371     0.00164173    -0.00106073
H        -0.94623638     0.08929747     1.95072142     0.00021342    -0.00102033    -0.00045407
H        -0.85952545     0.67121300    -0.49989974     0.00065439     0.00133710     0.00070598
