    14
  Step:   600            Position(A)                                  Velocity(au)
C        -5.88125169    -0.69323924     0.12292245     0.00005349     0.00034660    -0.00054123
C        -4.91780688     0.23207737     0.36609177     0.00039688     0.00009800     0.00055440
H        -5.46063896    -1.52904976    -0.43791677    -0.00072707    -0.00036582    -0.00013567
H        -6.88054817    -0.72941734     0.61298936     0.00133770    -0.00140406    -0.00184330
H        -5.18839563     1.11155600     1.06490768     0.00138574     0.00070742     0.00298827
C        -3.76790758    -0.02237736    -0.50756746     0.00047127     0.00018907     0.00060722
C        -2.42567987     0.29646262    -0.52277822     0.00014518    -0.00020691    -0.00010826
H        -4.19917283    -0.63452855    -1.24988479    -0.00013906    -0.00045129    -0.00231294
H        -1.86298520    -0.18138374    -1.41408645    -0.00197002    -0.00414451    -0.00130428
C        -1.31110408     0.94346084     0.36889856    -0.00041525    -0.00004215    -0.00025130
H        -0.36305278     0.33676104     0.69894746    -0.00042919    -0.00164384    -0.00012235
N        -1.12742204     2.15266971     0.47113490    -0.00046323     0.00033238     0.00015864
H        -0.45455853     2.53236733     1.13558522    -0.00229151    -0.00118901    -0.00107626
H        -1.78859373     2.80821939     0.11095344     0.00150653    -0.00071051    -0.00150621
