12

C       -0.03398275     0.07660530    -0.20099453
N       -0.04532022     0.01244331     1.51162055
H        0.84088511    -0.50658500    -0.58724670
H        0.83932915    -0.45927543     1.85846520
H       -0.85375360    -0.61965931     1.68485708
H       -1.00467237    -0.17001997    -0.67498580
C       -0.03413003     0.07701832    -0.20082177
N       -0.04561967     0.01252685     1.51146344
H        0.83914456    -0.51450786    -0.58251968
H        0.84177420    -0.45606060     1.85842602
H       -0.84886770    -0.62434868     1.67879633
H       -1.00434650    -0.16670521    -0.67348829
