6

C       -0.06722300     0.02392134     0.02005948
N        0.00892409    -0.05908523     1.30170123
H        0.19924149     0.90851669    -0.56603026
H       -0.26603526    -0.92920544     1.76583659
H       -0.12342233     0.76695221     1.89389374
H       -0.34568254    -0.88003832    -0.52959538
