6

C       -0.04443982     0.02032902     0.01232082
N       -0.03754322    -0.05446160     1.30167440
H        0.90421248     0.10214838    -0.52416398
H        0.82113183    -0.23596077     1.82829609
H       -0.88650562    -0.00353733     1.86586915
H       -1.00051678    -0.01784204    -0.51329595
