6

C   -0.03091955    0.00989574    0.02983601   -0.00003280   -0.00003289    0.00014919
N   -0.04735008   -0.06469695    1.28514897   -0.00012066   -0.00004765   -0.00017779
H    0.90505772    0.05144521   -0.50483182   -0.00049158    0.00008919    0.00038394
H    0.79368743   -0.06268967    1.80895829    0.00122132    0.00050817    0.00053130
H   -0.89514281    0.02230428    1.90686287    0.00058546    0.00016831   -0.00047714
H   -0.99010743    0.10029623   -0.53335760    0.00075245    0.00028848    0.00025482
