6

C       -0.03578850     0.07424079    -0.17728874
N       -0.03471439     0.00372175     1.49064821
H        0.91542786    -0.01960826    -0.72853255
H        0.62528423    -0.78457941     1.66787392
H       -0.96469508    -0.23566269     1.91347549
H       -0.88009568    -0.56629757    -0.56276347
