6

C       -0.02455665     0.01570675     0.02346565
N       -0.04449085    -0.04781731     1.29180499
H        0.22205983     0.93903012    -0.50141198
H       -0.22970468    -0.96082896     1.73735041
H       -0.09098033     0.75006824     1.92787323
H       -0.20343756    -0.92071441    -0.50277348
