6

C        0.01923376    -0.07185165    -0.14502129
N       -0.01195830     0.04881360     1.45638655
H       -0.64134148     0.92652988    -0.84146350
H       -0.30508137    -1.00144112     1.63369737
H       -0.22431605     1.00327657     1.87584494
H       -0.10578286    -1.41998679    -0.28683615
