14

C   -6.05574045   -0.80052662   -0.05536443    0.00019310    0.00022166    0.00007717
C   -4.70659921   -0.70522097    0.14689951   -0.00038675   -0.00023776   -0.00001374
H   -6.65985795    0.02747059   -0.46168394    0.00060338    0.00073473   -0.00009240
H   -6.57478884   -1.74171113    0.14561435   -0.00184132   -0.00046249   -0.00106336
H   -4.22276162   -1.59261039    0.61878989    0.00019972    0.00056559   -0.00005453
C   -3.92098926    0.45087467   -0.14054225   -0.00000180   -0.00016122   -0.00008530
C   -2.56093678    0.51358884    0.17953176    0.00034442    0.00009201    0.00008285
H   -4.30544300    1.35007727   -0.55535103    0.00016477   -0.00082519    0.00022121
H   -2.08032475   -0.40798554    0.51593128   -0.00024320   -0.00020639   -0.00009769
C   -1.76521877    1.66492713   -0.05581854   -0.00016694   -0.00021481    0.00018082
H   -2.23635442    2.49347036   -0.61637665    0.00023378   -0.00075015    0.00092999
N   -0.52636957    1.81985190    0.25345159    0.00016115    0.00025574   -0.00017984
H   -0.05350891    2.69378164    0.16341981   -0.00045141    0.00103915   -0.00063500
H   -0.00760958    1.13969155    0.79117660   -0.00069101   -0.00007279    0.00040964
