14

C       -4.98450681    -1.27489293    -0.64556938
C       -4.80817609    -0.01656903    -0.12099012
H       -4.25782603    -1.90694933    -0.97498593
H       -5.92091829    -1.29208027    -1.13235041
H       -5.69387807     0.58920864    -0.22275596
C       -4.12346789     0.87870009     0.81290538
C       -2.89178662     1.44234072     0.85771093
H       -4.78698626     1.11445896     1.60638023
H       -2.35233831     2.04795805     1.59065312
C       -1.92587444     0.77961426    -0.03408259
H       -2.10155023    -0.33348800    -0.04878700
N       -0.78818907     1.28144585    -0.37342906
H        0.01499637     0.75762602    -0.76440192
H       -0.68863104     2.29772590    -0.21685537
