     6
  Step:   120            Position(A)                                  Velocity(au)
C        -0.03790393    -0.01304082    -0.07434492     0.00006869    -0.00003667     0.00060044
N        -0.06002634    -0.11117426     1.38725762    -0.00005055     0.00007109    -0.00053536
H         0.75523446     0.67192200    -0.47308081    -0.00116902     0.00124373     0.00074850
H         0.82068513    -0.25724671     1.94200301    -0.00067225    -0.00147402    -0.00043223
H        -0.57495295     0.73165264     1.76895432     0.00133604     0.00114054    -0.00035854
H        -0.92810037    -0.11578091    -0.73775503     0.00038909    -0.00146128     0.00032703
