     6
  Step:   120            Position(A)                                  Velocity(au)
C        -0.04077860     0.00471431    -0.21493800    -0.00000067    -0.00018390     0.00014231
N        -0.05346043    -0.10436951     1.50612621    -0.00010018    -0.00013180    -0.00007488
H         0.94417767     0.40209344    -0.61748804    -0.00042096     0.00258249     0.00089440
H         0.91337495    -0.13236645     1.95644318     0.00008219    -0.00046497    -0.00035202
H        -0.83890829     0.42049054     1.93186733     0.00167593     0.00232912    -0.00118393
H        -1.00275877     0.03417117    -0.74723292     0.00006298    -0.00042381    -0.00001371
