6

C       -0.03985464     0.01561720     0.01532018
N       -0.05172035    -0.02848838     1.31555689
H        0.73447701    -0.48195643    -0.63848282
H        0.76506318     0.21417745     1.92842155
H       -0.72041078    -0.69792684     1.79425511
H       -0.79843916     0.50572141    -0.65615271
