6

C       -0.03760260    -0.01922847    -0.23215946
N       -0.04783368    -0.15085569     1.52590504
H        0.93678396     0.35996818    -0.62032889
H        0.78403617     0.37564313     1.83303909
H       -0.85315088     0.46376292     1.83296301
H       -0.96782690     0.45634540    -0.59172679
