     6
  Step:   120            Position(A)                                  Velocity(au)
C        -0.03610517    -0.01174722    -0.19655807     0.00003959    -0.00014313     0.00017282
N        -0.05142327    -0.12656201     1.49075591    -0.00012805    -0.00004980    -0.00014258
H         0.86872859     0.55618576    -0.58440260    -0.00069239     0.00195451     0.00083095
H         0.84226002     0.02888909     1.98432106     0.00050895    -0.00052017     0.00002633
H        -0.77424170     0.57528334     1.83804022     0.00152637     0.00145617    -0.00091714
H        -1.00485288     0.06860178    -0.71977370    -0.00003514    -0.00049301    -0.00001810
