     6
  Step:   300            Position(A)                                  Velocity(au)
C        -0.01767704     0.02652698     0.02821334    -0.00007839     0.00007138     0.00004578
N        -0.05600887    -0.05874423     1.28802050     0.00025943    -0.00003492    -0.00009525
H         0.27702358     0.94232628    -0.49843639    -0.00112421    -0.00003615    -0.00048646
H        -0.17583271    -0.97761575     1.75192357    -0.00259077     0.00046049     0.00033420
H        -0.04176028     0.76395843     1.89440953    -0.00015687    -0.00048694     0.00058878
H        -0.28340106    -0.89821629    -0.49083387     0.00120076    -0.00030268     0.00034163
