14

C       -4.75976785    -1.05557693    -0.36953265
C       -5.31403364     0.11418094    -0.04504810
H       -3.72973876    -0.97805066    -0.79578711
H       -5.15157900    -2.00368135    -0.81849787
H       -6.34681439     0.16897314     0.11385257
C       -4.22817919     0.97706016     0.55416186
C       -2.82546082     0.84422497     0.77253708
H       -4.71697327     1.29623546     1.51358693
H       -2.31378134     1.05706314     1.78079049
C       -1.83428825     0.74986084    -0.27937854
H       -1.99911289     0.27070497    -1.20952866
N       -0.65405607     1.41330529    -0.19692445
H       -0.14233510     1.75455525    -1.05148164
H       -0.53553298     2.01584034     0.67724794
