12

C       -0.03890703     0.03877645    -0.05910408
N       -0.03274705    -0.01512467     1.38103840
H        0.85524636     0.30446236    -0.68512789
H        0.55918754    -0.81945049     1.73825310
H       -0.87915686     0.13852068     1.96073072
H       -0.82953224    -0.54520008    -0.60892184
C       -0.03923581     0.03876534    -0.05558761
N       -0.03238161    -0.01514667     1.37784941
H        0.85177334     0.31146580    -0.68241278
H        0.55209808    -0.82631681     1.73617129
H       -0.87604180     0.14634777     1.95915737
H       -0.82324528    -0.55272618    -0.60556876
