6

C        0.15217097    -0.14487229    -0.05044012
N       -0.24573777     0.13769249     1.40884380
H       -0.60329130    -1.06912242    -0.41968119
H       -0.30577088     0.65108350     2.32208572
H        0.77080015    -1.15610128     0.62003234
H        0.52703265     0.71744613    -0.60723860
