     6
  Step:   120            Position(A)                                  Velocity(au)
C        -0.02985995     0.09052716    -0.00862064     0.00005000     0.00024811    -0.00040612
N        -0.04607196    -0.04919814     1.34436874     0.00000843    -0.00017543     0.00025456
H         0.80941877    -0.42497702    -0.64403317     0.00020895    -0.00112521     0.00049093
H         0.87503255    -0.18305069     1.83044344    -0.00000358     0.00088703     0.00015483
H        -0.94469681    -0.26968627     1.80491933    -0.00029994    -0.00009079     0.00021658
H        -0.95664615    -0.18710199    -0.67838868    -0.00061831    -0.00018961     0.00043961
