14

C   -6.03742187   -0.87776477   -0.12825130    0.00035748    0.00020863   -0.00011753
C   -4.66101727   -0.70956219    0.13498024   -0.00017840   -0.00029277    0.00007903
H   -6.65667152    0.04666034   -0.28707326   -0.00084089    0.00118838   -0.00089592
H   -6.54325079   -1.85602921    0.00977132    0.00088521    0.00036580    0.00109132
H   -4.03529327   -1.53869531    0.45584165   -0.00001498   -0.00082326   -0.00050308
C   -3.94568150    0.51379054   -0.01701499   -0.00001882    0.00007684    0.00020924
C   -2.59802281    0.58590049    0.13465350    0.00016175    0.00003664   -0.00003885
H   -4.49454927    1.44359126   -0.38609006    0.00018076   -0.00046264   -0.00023757
H   -2.01190788   -0.31073415    0.50061684    0.00011748    0.00109468   -0.00002345
C   -1.78588474    1.76150462   -0.01711849   -0.00047482   -0.00012485   -0.00010542
H   -2.31272692    2.61093046   -0.45660969    0.00056602    0.00033071    0.00000324
N   -0.51685254    1.69610390    0.20270746    0.00004921    0.00005901    0.00001073
H    0.12357782    2.53894568    0.25313093    0.00029714   -0.00127210    0.00051350
H   -0.12111108    0.95706556    0.82930926   -0.00005368   -0.00010348   -0.00041263
