6

C       -0.03511484    -0.01798756    -0.01599891
N       -0.04548276    -0.02116860     1.33450388
H        0.91998630     0.10970827    -0.59147825
H        0.82023605    -0.28263793     1.90822276
H       -0.87356818    -0.18783125     1.84639883
H       -1.02910723     0.19948174    -0.62520679
