6

C       -0.10485775     0.07359674    -0.00931225
N        0.03023057    -0.15313207     1.31596193
H       -0.18847256     1.47151975     0.06428880
H       -0.83875132    -0.98815964     1.26795612
H        0.08971498     0.50079931     2.35465615
H        0.55336664    -0.40275036    -0.97130527
