12

C       -0.03900766    -0.03475459    -0.10774686
N       -0.04462890    -0.12854536     1.40730390
H        0.91166860     0.35690427    -0.41847162
H        0.81792828     0.32988646     1.76261505
H       -0.87459542     0.40664074     1.73745630
H       -0.98294384     0.43724840    -0.46203305
C       -0.03903180    -0.03491548    -0.10782606
N       -0.04478362    -0.12896382     1.40701269
H        0.90972211     0.35788559    -0.41303745
H        0.81961188     0.33343968     1.76062665
H       -0.87363919     0.40946988     1.73391341
H       -0.98119956     0.43761699    -0.45694532
