12

C       -0.03394274     0.06254155    -0.23191229
N       -0.03738364     0.00140511     1.53399271
H        0.92797042    -0.19182333    -0.70401521
H        0.74025138    -0.61476957     1.83850631
H       -0.95501254    -0.39272959     1.88228983
H       -1.00217184    -0.23522604    -0.67816843
C       -0.03418859     0.06333329    -0.23171959
N       -0.03747814     0.00259521     1.53452975
H        0.93133654    -0.19576132    -0.70443678
H        0.73714919    -0.62497737     1.83249801
H       -0.95111842    -0.39646761     1.87641999
H       -1.00208697    -0.24331479    -0.67562785
