6

C       -0.03418859     0.06333329    -0.23171959
N       -0.03747814     0.00259521     1.53452975
H        0.93133654    -0.19576132    -0.70443678
H        0.73714919    -0.62497737     1.83249801
H       -0.95111842    -0.39646761     1.87641999
H       -1.00208697    -0.24331479    -0.67562785
