6

C       -0.02822103     0.02599519    -0.02170045
N       -0.05378577    -0.07268840     1.33495809
H        0.93365942    -0.03855976    -0.61494682
H        0.84527030    -0.08019545     1.90377459
H       -0.86518482     0.07697046     1.88940045
H       -1.04297678     0.07234859    -0.57864840
