    14
  Step:   600            Position(A)                                  Velocity(au)
C        -5.94343096    -0.43236636     0.23446186     0.00001476    -0.00040211    -0.00012428
C        -4.62606401    -0.59080386     0.35759060     0.00066088     0.00018158    -0.00026972
H        -6.49169437     0.02170299    -0.53421268     0.00067954     0.00055739    -0.00038412
H        -6.45120031    -0.93452542     0.92981505    -0.00035737    -0.00033784    -0.00108871
H        -4.34162568    -1.41096319     1.15479898     0.00254055     0.00174713     0.00013493
C        -3.56680280    -0.16768207    -0.59441415    -0.00052889     0.00040641     0.00063539
C        -2.68089963     0.85406660    -0.44473107     0.00038379     0.00051195    -0.00034667
H        -3.90289868    -0.35594990    -1.66835049    -0.00125580    -0.00077906    -0.00046436
H        -2.70398473     1.27999920    -1.49632377    -0.00016239    -0.00025131     0.00311995
C        -1.75044124     1.08715615     0.51901187    -0.00003063     0.00034914     0.00060644
H        -1.72223635     0.32805033     1.36675359    -0.00239538     0.00068695    -0.00209279
N        -0.85973003     2.12377838     0.27158910    -0.00025653    -0.00084584    -0.00025877
H        -0.07170926     2.29661684     0.84268167    -0.00036706     0.00071711    -0.00117512
H        -1.08830207     2.96236171    -0.21218535    -0.00107440    -0.00306188    -0.00042564
