6

C   -0.03679405    0.00122612    0.05026671    0.00017184   -0.00009207    0.00006563
N   -0.04051359   -0.06206083    1.27252485    0.00017843    0.00005499    0.00008480
H    0.87407857    0.08088208   -0.52632430   -0.00017735    0.00016318   -0.00029208
H    0.83685161   -0.06354528    1.89303573   -0.00158322   -0.00013660   -0.00168482
H   -0.93237927    0.04426630    1.78627189   -0.00153864   -0.00018575    0.00054243
H   -0.99005767    0.11642830   -0.54337569   -0.00122791    0.00049208   -0.00052592
