     6
  Step:   120            Position(A)                                  Velocity(au)
C        -0.03772072     0.09606833     0.00397571    -0.00007419     0.00021967    -0.00039603
N        -0.04086982    -0.04635573     1.33079721     0.00005641    -0.00019050     0.00027297
H         0.83502099    -0.26304279    -0.65475434     0.00103649     0.00008501     0.00039636
H         0.81223260    -0.40801024     1.79882801    -0.00005142    -0.00013002    -0.00017679
H        -0.95721676    -0.05684338     1.82471712    -0.00051195     0.00122196     0.00028456
H        -0.88555427    -0.44246459    -0.61733286    -0.00037290    -0.00114732     0.00042171
