14

C       -5.87556742    -0.54196073     0.04882465
C       -4.63544572    -0.59055096     0.41447858
H       -6.18836249    -0.21868850    -0.99207861
H       -6.75267501    -0.86139319     0.70746654
H       -4.20450593    -1.06906995     1.26613586
C       -3.77437480     0.03543532    -0.55404707
C       -2.71022229     0.86814178    -0.37790583
H       -4.21762914     0.28416435    -1.49037448
H       -2.22524075     1.27149218    -1.31778994
C       -1.77908606     1.23348214     0.67842294
H       -1.90190450     1.23572317     1.80543768
N       -0.73555960     1.86411638     0.19308831
H        0.18888574     1.90998548     0.69844296
H       -0.73001851     2.21364519    -0.84588441
