     6
  Step:   120            Position(A)                                  Velocity(au)
C        -0.04309912    -0.04477793     0.00175762    -0.00001814    -0.00019502    -0.00036671
N        -0.04267053    -0.07984298     1.33078355    -0.00000388     0.00014827     0.00028549
H         0.85989972     0.30960741    -0.63503332     0.00089030     0.00042940     0.00030151
H         0.84628138     0.11746320     1.82030888     0.00034414    -0.00034481     0.00001927
H        -0.93568718     0.13040375     1.83565597    -0.00015010    -0.00066425    -0.00023698
H        -0.87689683     0.41584902    -0.64288040    -0.00081435     0.00084319     0.00031856
