     6
  Step:     0            Position(A)                                  Velocity(au)
C        -0.02830207     0.02313538     0.01339488     0.00006560    -0.00001959     0.00042317
N        -0.05615033    -0.04806448     1.30626842     0.00000119     0.00015693    -0.00030586
H         0.92685918    -0.06053204    -0.57770855    -0.00033469    -0.00003309    -0.00021981
H         0.89466404    -0.15202830     1.85443243     0.00056720    -0.00092582     0.00029824
H        -0.89625488    -0.09816445     1.78724719    -0.00034050    -0.00058069    -0.00036235
H        -1.02067176     0.03318463    -0.48390979    -0.00069013    -0.00040770    -0.00050828
     6
  Step:     1            Position(A)                                  Velocity(au)
C        -0.02792503     0.02303535     0.01560011     0.00007175    -0.00001691     0.00038103
N        -0.05604405    -0.04721049     1.30468545     0.00003735     0.00015529    -0.00027095
H         0.92487650    -0.06071935    -0.57896550    -0.00039043    -0.00003536    -0.00023947
H         0.89713608    -0.15703342     1.85581420     0.00033188    -0.00090370     0.00020375
H        -0.89887768    -0.10142353     1.78587008    -0.00061066    -0.00061164    -0.00014566
H        -1.02450749     0.03096082    -0.48693769    -0.00070460    -0.00040574    -0.00059388
     6
  Step:     2            Position(A)                                  Velocity(au)
C        -0.02751727     0.02295043     0.01756277     0.00007678    -0.00001408     0.00033468
N        -0.05574181    -0.04636588     1.30330470     0.00007236     0.00015350    -0.00023194
H         0.92258847    -0.06091879    -0.58032793    -0.00044588    -0.00003757    -0.00025864
H         0.89829425    -0.16191328     1.85666113     0.00008881    -0.00088026     0.00010391
H        -0.90293457    -0.10485484     1.78565385    -0.00085993    -0.00064327     0.00005902
H        -1.02837900     0.02874649    -0.49040589    -0.00070336    -0.00040421    -0.00066926
     6
  Step:     3            Position(A)                                  Velocity(au)
C        -0.02708515     0.02288136     0.01926087     0.00008062    -0.00001113     0.00028455
N        -0.05525259    -0.04553149     1.30214847     0.00010531     0.00015156    -0.00018894
H         0.91999940    -0.06113025    -0.58179453    -0.00050005    -0.00003980    -0.00027784
H         0.89810746    -0.16666183     1.85695082    -0.00015799    -0.00085597     0.00000119
H        -0.90828367    -0.10845967     1.78651561    -0.00107912    -0.00067469     0.00024594
H        -1.03220095     0.02653950    -0.49425815    -0.00068683    -0.00040304    -0.00073443
     6
  Step:     4            Position(A)                                  Velocity(au)
C        -0.02663552     0.02282872     0.02067504     0.00008316    -0.00000808     0.00023113
N        -0.05458993    -0.04470818     1.30123815     0.00013545     0.00014945    -0.00014217
H         0.91711907    -0.06135406    -0.58336686    -0.00055190    -0.00004212    -0.00029758
H         0.89656620    -0.17127558     1.85667416    -0.00040459    -0.00083124    -0.00010200
H        -0.91473766    -0.11223440     1.78834386    -0.00126088    -0.00070498     0.00041048
H        -1.03589126     0.02433814    -0.49843878    -0.00065567    -0.00040212    -0.00078950
     6
  Step:     5            Position(A)                                  Velocity(au)
C        -0.02617558     0.02279293     0.02178886     0.00008435    -0.00000498     0.00017500
N        -0.05377116    -0.04389687     1.30059353     0.00016213     0.00014716    -0.00009200
H         0.91396295    -0.06159092    -0.58504928    -0.00060035    -0.00004459    -0.00031834
H         0.89368228    -0.17575352     1.85583518    -0.00064698    -0.00080651    -0.00020319
H        -0.92207460    -0.11617039     1.79100525    -0.00139990    -0.00073320     0.00054928
H        -1.03937235     0.02214128    -0.50289329    -0.00061079    -0.00040132    -0.00083470
     6
  Step:     6            Position(A)                                  Velocity(au)
C        -0.02571286     0.02277423     0.02258923     0.00008414    -0.00000185     0.00011681
N        -0.05281659    -0.04309852     1.30023189     0.00018487     0.00014469    -0.00003897
H         0.91055245    -0.06184184    -0.58684886    -0.00064427    -0.00004728    -0.00034059
H         0.88948952    -0.18009728     1.85445160    -0.00088094    -0.00078228    -0.00029980
H        -0.93004988    -0.12025424     1.79435191    -0.00149306    -0.00075852     0.00066029
H        -1.04257216     0.01994847    -0.50756874    -0.00055325    -0.00040049    -0.00087030
     6
  Step:     7            Position(A)                                  Velocity(au)
C        -0.02525514     0.02277267     0.02306674     0.00008248     0.00000126     0.00005729
N        -0.05174877    -0.04231403     1.30016718     0.00020331     0.00014205     0.00001619
H         0.90691495    -0.06210811    -0.58877516    -0.00068255    -0.00005021    -0.00036475
H         0.88404519    -0.18431135     1.85255555    -0.00110195    -0.00075912    -0.00038904
H        -0.93840800    -0.12446824     1.79822855    -0.00153928    -0.00078018     0.00074270
H        -1.04542466     0.01776008    -0.51241396    -0.00048423    -0.00039949    -0.00089663
     6
  Step:     8            Position(A)                                  Velocity(au)
C        -0.02481039     0.02278807     0.02321611     0.00007934     0.00000433    -0.00000276
N        -0.05059190    -0.04154421     1.30040907     0.00021720     0.00013926     0.00007264
H         0.90308384    -0.06239120    -0.59083997    -0.00071413    -0.00005341    -0.00039118
H         0.87743181    -0.18840366     1.85019463    -0.00130515    -0.00073770    -0.00046799
H        -0.94689290    -0.12879110     1.80247864    -0.00153932    -0.00079760     0.00079677
H        -1.04787065     0.01557722    -0.51737978    -0.00040507    -0.00039816    -0.00091407
     6
  Step:     9            Position(A)                                  Velocity(au)
C        -0.02438665     0.02282009     0.02303648     0.00007474     0.00000731    -0.00006250
N        -0.04937129    -0.04078965     1.30096225     0.00022636     0.00013639     0.00012937
H         0.89909817    -0.06269275    -0.59305697    -0.00073798    -0.00005691    -0.00042017
H         0.86975906    -0.19238612     1.84743294    -0.00148539    -0.00071881    -0.00053354
H        -0.95525734    -0.13319869     1.80694994    -0.00149553    -0.00081032     0.00082370
H        -1.04985848     0.01340182    -0.52241930    -0.00031723    -0.00039637    -0.00092306
     6
  Step:    10            Position(A)                                  Velocity(au)
C        -0.02399192     0.02286813     0.02253170     0.00006869     0.00001016    -0.00012103
N        -0.04811301    -0.04005061     1.30182581     0.00023069     0.00013350     0.00018532
H         0.89500227    -0.06301445    -0.59544122    -0.00075323    -0.00006071    -0.00045191
H         0.86116541    -0.19627531     1.84435182    -0.00163727    -0.00070339    -0.00058249
H        -0.96327033    -0.13766492     1.81149888    -0.00141142    -0.00081808     0.00082538
H        -1.05134462     0.01123654    -0.52748820    -0.00022229    -0.00039400    -0.00092412
     6
  Step:    11            Position(A)                                  Velocity(au)
C        -0.02363399     0.02293141     0.02171034     0.00006125     0.00001284    -0.00017748
N        -0.04684357    -0.03932689     1.30299286     0.00023014     0.00013068     0.00023938
H         0.89084494    -0.06335797    -0.59800865    -0.00075915    -0.00006479    -0.00048650
H         0.85181926    -0.20009324     1.84105051    -0.00175539    -0.00069248    -0.00061163
H        -0.97072247    -0.14216251     1.81599373    -0.00129144    -0.00082074     0.00080425
H        -1.05229419     0.00908467    -0.53254499    -0.00012190    -0.00039094    -0.00091779
     6
  Step:    12            Position(A)                                  Velocity(au)
C        -0.02332034     0.02300892     0.02058574     0.00005250     0.00001532    -0.00023099
N        -0.04558964    -0.03861779     1.30445045     0.00022471     0.00012803     0.00029043
H         0.88667857    -0.06372486    -0.60077538    -0.00075523    -0.00006912    -0.00052389
H         0.84191848    -0.20386792     1.83764561    -0.00183463    -0.00068720    -0.00061797
H        -0.97743025    -0.14666383     1.82031703    -0.00114058    -0.00081829     0.00076307
H        -1.05268123     0.00695005    -0.53755122    -0.00001776    -0.00038712    -0.00090469
     6
  Step:    13            Position(A)                                  Velocity(au)
C        -0.02305794     0.02309950     0.01917572     0.00004255     0.00001756    -0.00028079
N        -0.04437784    -0.03792201     1.30617970     0.00021448     0.00012568     0.00033746
H         0.88255803    -0.06411636    -0.60375713    -0.00074119    -0.00007364    -0.00056391
H         0.83168839    -0.20763369     1.83426973    -0.00187047    -0.00068872    -0.00059890
H        -0.98323773    -0.15114143     1.82436675    -0.00096420    -0.00081090     0.00070484
H        -1.05248904     0.00483693    -0.54247189     0.00008841    -0.00038247    -0.00088551
     6
  Step:    14            Position(A)                                  Velocity(au)
C        -0.02285305     0.02320179     0.01750213     0.00003156     0.00001954    -0.00032620
N        -0.04323425    -0.03723762     1.30815632     0.00019960     0.00012373     0.00037953
H         0.87853901    -0.06453354    -0.60696817    -0.00071706    -0.00007830    -0.00060624
H         0.82137737    -0.21143128     1.83106861    -0.00185949    -0.00069813    -0.00055253
H        -0.98801895    -0.15556898     1.82805740    -0.00076789    -0.00079883     0.00063263
H        -1.05171035     0.00274984    -0.54727578     0.00019485    -0.00037698    -0.00086102
     6
  Step:    15            Position(A)                                  Velocity(au)
C        -0.02271110     0.02331431     0.01559032     0.00001969     0.00002124    -0.00036665
N        -0.04218396    -0.03656205     1.31035133     0.00018032     0.00012229     0.00041592
H         0.87467645    -0.06497701    -0.61042055    -0.00068319    -0.00008302    -0.00065037
H         0.81124979    -0.21530717     1.82819661    -0.00179980    -0.00071637    -0.00047789
H        -0.99167796    -0.15992180     1.83132028    -0.00055715    -0.00078247     0.00054954
H        -1.05034738     0.00069340    -0.55193583     0.00029983    -0.00037065    -0.00083204
     6
  Step:    16            Position(A)                                  Velocity(au)
C        -0.02263644     0.02343546     0.01346839     0.00000716     0.00002263    -0.00040174
N        -0.04125045    -0.03589220     1.31273209     0.00015703     0.00012146     0.00044608
H         0.87102283    -0.06544690    -0.61412328    -0.00064022    -0.00008770    -0.00069570
H         0.80157680    -0.21931245     1.82581103    -0.00169142    -0.00074407    -0.00037524
H        -0.99414850    -0.16417740     1.83410322    -0.00033738    -0.00076230     0.00045860
H        -1.04841175    -0.00132786    -0.55642948     0.00040168    -0.00036352    -0.00079943
     6
  Step:    17            Position(A)                                  Velocity(au)
C        -0.02263221     0.02356355     0.01116649    -0.00000579     0.00002372    -0.00043118
N        -0.04045484    -0.03522453     1.31526344     0.00013024     0.00012130     0.00046969
H         0.86762652    -0.06594271    -0.61808147    -0.00058907    -0.00009221    -0.00074146
H         0.79262429    -0.22350070     1.82406453    -0.00153667    -0.00078143    -0.00024625
H        -0.99539313    -0.16831600     1.83637021    -0.00011375    -0.00073885     0.00036270
H        -1.04592418    -0.00330960    -0.56073896     0.00049879    -0.00035565    -0.00076410
     6
  Step:    18            Position(A)                                  Velocity(au)
C        -0.02270026     0.02369685     0.00871597    -0.00001892     0.00002448    -0.00045484
N        -0.03981500    -0.03455528     1.31790902     0.00010063     0.00012181     0.00048668
H         0.86453015    -0.06646327    -0.62229560    -0.00053093    -0.00009644    -0.00078674
H         0.78463969    -0.22792531     1.82309693    -0.00134028    -0.00082808    -0.00009409
H        -0.99540230    -0.17232096     1.83810086     0.00010878    -0.00071275     0.00026464
H        -1.04291409    -0.00524785    -0.56485139     0.00058966    -0.00034712    -0.00072696
     6
  Step:    19            Position(A)                                  Velocity(au)
C        -0.02284096     0.02383357     0.00614866    -0.00003197     0.00002491    -0.00047272
N        -0.03934472    -0.03388068     1.32063249     0.00006903     0.00012299     0.00049717
H         0.86176932    -0.06700668    -0.62676087    -0.00046718    -0.00010025    -0.00083056
H         0.77783824    -0.23263607     1.82302651    -0.00110938    -0.00088299     0.00007652
H        -0.99419312    -0.17617913     1.83928978     0.00032549    -0.00068468     0.00016710
H        -1.03941904    -0.00713907    -0.56875887     0.00067287    -0.00033801    -0.00068890
     6
  Step:    20            Position(A)                                  Velocity(au)
C        -0.02305326     0.02397193     0.00349615    -0.00004466     0.00002502    -0.00048493
N        -0.03905279    -0.03319723     1.32339875     0.00003640     0.00012474     0.00050149
H         0.85937157    -0.06757023    -0.63146664    -0.00039935    -0.00010349    -0.00087180
H         0.77238983    -0.23767532     1.82394185    -0.00085322    -0.00094445     0.00025954
H        -0.99180827    -0.17988118     1.83994595     0.00053187    -0.00065533     0.00007259
H        -1.03548417    -0.00898019    -0.57245831     0.00074715    -0.00032841    -0.00065077
     6
  Step:    21            Position(A)                                  Velocity(au)
C        -0.02333459     0.02411014     0.00078926    -0.00005674     0.00002482    -0.00049165
N        -0.03894239    -0.03250200     1.32617491     0.00000381     0.00012696     0.00050011
H         0.85735566    -0.06815042    -0.63639604    -0.00032909    -0.00010601    -0.00090933
H         0.76840842    -0.24307412     1.82589494    -0.00058261    -0.00101009     0.00044791
H        -0.98831488    -0.18342183     1.84009207     0.00072362    -0.00062546    -0.00001644
H        -1.03116153    -0.01076863    -0.57595122     0.00081131    -0.00031839    -0.00061337
     6
  Step:    22            Position(A)                                  Velocity(au)
C        -0.02368093     0.02424645    -0.00194246    -0.00006794     0.00002429    -0.00049315
N        -0.03901060    -0.03179282     1.32893098    -0.00002763     0.00012947     0.00049361
H         0.85573117    -0.06874291    -0.64152574    -0.00025805    -0.00010767    -0.00094200
H         0.76594495    -0.24884897     1.82889670    -0.00030924    -0.00107703     0.00063403
H        -0.98380360    -0.18680009     1.83976405     0.00089660    -0.00059587    -0.00009769
H        -1.02650945    -0.01250226    -0.57924342     0.00086429    -0.00030805    -0.00057744
     6
  Step:    23            Position(A)                                  Velocity(au)
C        -0.02408686     0.02437912    -0.00467097    -0.00007802     0.00002346    -0.00048974
N        -0.03924827    -0.03106848     1.33164031    -0.00005682     0.00013210     0.00048263
H         0.85449846    -0.06934261    -0.64682607    -0.00018789    -0.00010835    -0.00096869
H         0.76498443    -0.25499927     1.83291508    -0.00004484    -0.00114208     0.00081025
H        -0.97838748    -0.19001943     1.83901040     0.00104694    -0.00056737    -0.00016896
H        -1.02159192    -0.01417941    -0.58234476     0.00090518    -0.00029746    -0.00054367
     6
  Step:    24            Position(A)                                  Velocity(au)
C        -0.02454563     0.02450649    -0.00737012    -0.00008677     0.00002234    -0.00048183
N        -0.03964030    -0.03032883     1.33427984    -0.00008275     0.00013466     0.00046784
H         0.85364887    -0.06994372    -0.65226139    -0.00012018    -0.00010793    -0.00098844
H         0.76544804    -0.26150624     1.83787643     0.00019971    -0.00120203     0.00096952
H        -0.97220069    -0.19308809     1.83789154     0.00117108    -0.00054086    -0.00022820
H        -1.01647762    -0.01579886    -0.58526874     0.00093330    -0.00028671    -0.00051270
