     6
  Step:   120            Position(A)                                  Velocity(au)
C        -0.04109413     0.04818447    -0.04298645    -0.00003829    -0.00007815     0.00071148
N        -0.04627526    -0.05623569     1.35851471     0.00001708     0.00007980    -0.00060547
H         0.83395969     0.32672378    -0.69302964    -0.00073142     0.00125018     0.00065751
H         0.68186864    -0.60631502     1.87090068    -0.00095708    -0.00135431    -0.00048298
H        -0.79577469     0.38087323     1.96466887     0.00099432     0.00112493    -0.00045350
H        -0.80025284    -0.56376932    -0.61665798     0.00091300    -0.00119846     0.00021483
