     6
  Step:   300            Position(A)                                  Velocity(au)
C        -0.03507924     0.00899133     0.00829554     0.00000854     0.00001678     0.00003815
N        -0.04463165    -0.05406352     1.30449378    -0.00000253    -0.00004470    -0.00002520
H         0.91735155     0.02193379    -0.51991759    -0.00029152    -0.00042742    -0.00039575
H         0.79393531    -0.20336744     1.86759916    -0.00013071     0.00071904     0.00032418
H        -0.90250697     0.09686449     1.84379733     0.00011067    -0.00031082     0.00013731
H        -0.98348583     0.05894525    -0.52600030     0.00024501     0.00044050    -0.00017010
