14

C       -5.26328144    -0.84289281     0.50519337
C       -4.67427385     0.26910964     0.34417089
H       -5.16188859    -1.74156754    -0.13364871
H       -6.08609389    -1.04032038     1.25340467
H       -4.98704157     1.17092752     0.84585905
C       -3.90620325     0.48058329    -0.88533507
C       -2.60665890     0.39912396    -0.87412314
H       -4.23871750     0.16413210    -1.88870653
H       -2.11567401     0.70012196    -1.79846491
C       -1.89359847     0.81949774     0.44272769
H       -2.33734813     0.30928834     1.48567999
N       -1.10673073     1.81609106     0.67672670
H       -0.28655274     1.77921216     1.31153228
H       -0.79247677     2.65195648     0.10350356
