     6
  Step:   300            Position(A)                                  Velocity(au)
C        -0.03367357     0.01333228     0.02378159    -0.00001288    -0.00000271     0.00015524
N        -0.04532856    -0.05544671     1.29411516     0.00002380    -0.00000183    -0.00010380
H         0.11292530    -0.86172767    -0.60560706     0.00126672     0.00020309     0.00001765
H        -0.08354352     0.77082624     1.89620432     0.00129835     0.00011064    -0.00014103
H        -0.05694396    -0.93534572     1.82333911    -0.00147812    -0.00004612    -0.00019221
H        -0.15421320     0.96811320    -0.48874867    -0.00126412    -0.00020980    -0.00009184
