14

C       -4.91519162    -1.16006596    -0.29897306
C       -4.77725962     0.14800414    -0.57308236
H       -4.96519792    -1.56749827     0.69682587
H       -4.69585682    -1.77896032    -1.19371593
H       -4.67186015     0.64551061    -1.53627261
C       -4.28189559     0.87568341     0.66333399
C       -2.91735562     1.10286194     1.00497369
H       -5.23108831     1.42552828     1.11515781
H       -2.50262432     1.53126327     1.94221488
C       -1.81753256     0.71079247     0.08979839
H       -1.75337085    -0.38077708    -0.03019053
N       -0.87284124     1.39643587    -0.36064444
H       -0.15029223     0.99866794    -0.97715475
H       -0.93320267     2.37557005    -0.54936974
