14

C       -5.03832938    -1.10719098    -0.30239023
C       -4.96500774     0.22428735    -0.43208709
H       -4.70431747    -1.73222647     0.54262605
H       -5.52206847    -1.65792195    -1.15429007
H       -5.52828482     0.71779098    -1.20199313
C       -4.20716246     0.80931260     0.73134398
C       -2.83386348     0.73664773     0.83344338
H       -4.74021603     0.92964362     1.76730574
H       -2.37673698     0.87433509     1.82465166
C       -1.85361823     0.89437714    -0.27927856
H       -2.22275805     0.46031082    -1.16134974
N       -0.67816861     1.50345315    -0.14111714
H       -0.31349964     2.18976557    -0.70972416
H        0.04827326     1.40836988     0.50119277
