6

C       -0.03131714     0.01004738     0.01500910
N       -0.04480615    -0.05533997     1.29963000
H        0.20449573    -0.88457002    -0.57146800
H       -0.04370772     0.81323865     1.84105636
H       -0.13928715    -0.94564551     1.79132492
H       -0.23861423     0.99650967    -0.40785120
