6

C   -0.03625530    0.00953790    0.03204706    0.00018240    0.00007881   -0.00021540
N   -0.03730746   -0.06434079    1.28285972    0.00005249   -0.00002348    0.00024988
H    0.92459233    0.04458463   -0.53668435   -0.00025846   -0.00042316   -0.00028334
H    0.78810961   -0.05894088    1.87000840   -0.00038785    0.00004464   -0.00101244
H   -0.96655616    0.02908203    1.86997636   -0.00128452   -0.00009509    0.00029176
H   -1.00862599    0.09594493   -0.52020346   -0.00097212   -0.00013928    0.00009827
