6

C       -0.04692316     0.08082094    -0.03073192
N       -0.04102249    -0.05900062     1.35556332
H        0.91877306    -0.06236307    -0.65403923
H        0.82054697    -0.42896652     1.83772317
H       -0.92432308     0.08949094     1.87104112
H       -0.89872063    -0.41111582    -0.63386457
