6

C        0.02620458     0.13463438     0.04002779
N       -0.11279017    -0.16698036     1.32201796
H        0.51849284     1.00455268    -0.46877519
H        0.92343377     0.64091383     2.04508444
H       -0.36486566    -1.19468802     1.54291381
H       -1.03454064    -0.40407033    -1.07516945
