     6
  Step:   300            Position(A)                                  Velocity(au)
C        -0.03064873    -0.00588039     0.01599699     0.00009778     0.00003095    -0.00004579
N        -0.04494722    -0.03803600     1.29841922    -0.00002039    -0.00006346     0.00001220
H         0.90725678    -0.16923611    -0.49587989     0.00007902     0.00028084    -0.00026568
H         0.79301878     0.12186903     1.86345742    -0.00005324    -0.00006169    -0.00009507
H        -0.94056585    -0.22941684     1.75377319    -0.00043649     0.00079109    -0.00009879
H        -0.98283169     0.20562266    -0.46320388    -0.00047119    -0.00049722     0.00083556
