     6
  Step:   300            Position(A)                                  Velocity(au)
C        -0.00944731     0.01290294     0.01524006    -0.00005240    -0.00011623     0.00004769
N        -0.08570844    -0.05058728     1.30464270     0.00019394     0.00001519    -0.00007576
H         0.24556624    -0.89235250    -0.52589843     0.00011581     0.00007795    -0.00037888
H         0.16310877     0.79297293     1.82880029    -0.00100661     0.00046408    -0.00016705
H        -0.06104936    -0.97299684     1.75389443    -0.00110136     0.00017682     0.00004778
H        -0.25695982     0.95181770    -0.47614197    -0.00007858     0.00045504     0.00098277
