14

C       -5.56785300    -1.05706952     0.35848921
C       -4.91392278    -0.16590996    -0.36974019
H       -5.39562937    -1.37251563     1.38637352
H       -6.30317847    -1.70827331    -0.16546564
H       -4.84580473     0.14651527    -1.38690765
C       -3.84500734     0.63994177     0.34715149
C       -2.66541159     0.39129316    -0.22337612
H       -4.22258044     1.56792015     0.83521846
H       -2.53065306    -0.56652137    -0.83645346
C       -1.33547296     0.91221367    -0.16298477
H       -0.55138378     0.17261788    -0.26927556
N       -1.12133085     2.19235794     0.34243239
H       -0.32267181     2.44881858     0.96170443
H       -1.82526492     2.90105529     0.33136969
