     6
  Step:   120            Position(A)                                  Velocity(au)
C        -0.03124014     0.06284479    -0.00737166    -0.00013074    -0.00006357     0.00041479
N        -0.03726115    -0.00399113     1.33595102     0.00008231    -0.00007932    -0.00038284
H         0.84121115     0.10595624    -0.70971150    -0.00023028     0.00154281     0.00063403
H         0.52810398    -0.83101779     1.65817765    -0.00075927    -0.00070505     0.00019666
H        -0.91346865     0.03470490     1.91609283     0.00054014     0.00187385    -0.00042148
H        -0.77871772    -0.67283348    -0.44950668     0.00086351    -0.00085181    -0.00003179
