     6
  Step:   120            Position(A)                                  Velocity(au)
C        -0.03592459    -0.02514513    -0.22580841     0.00002215    -0.00012930    -0.00000184
N        -0.03978299    -0.14003560     1.51968160     0.00000392    -0.00006171     0.00002941
H         0.93752622     0.26050029    -0.65932185     0.00012313     0.00003114     0.00011161
H         0.71079933     0.50987304     1.81597474    -0.00067098     0.00113848    -0.00090741
H        -0.92823930     0.29141143     1.89089380     0.00018457    -0.00023384    -0.00034642
H        -0.95210709     0.51404040    -0.58280260     0.00004485     0.00146247     0.00075549
