14

C       -5.90344610    -0.20570427     0.58625452
C       -4.63787383    -0.41505893     0.25359446
H       -6.64113530     0.51384094     0.24194479
H       -6.40349856    -0.99746187     1.17307149
H       -4.23926934    -1.08046899     1.03614525
C       -3.64396311    -0.17165814    -0.85248406
C       -2.36615876     0.49509770    -0.80340484
H       -3.77186335    -0.81244371    -1.74902227
H       -1.91283009     0.67997063    -1.76329339
C       -1.82579261     1.05672678     0.41327171
H       -2.17686678     0.36175688     1.25722559
N       -1.01848629     2.11926787     0.59107461
H       -1.10529190     2.69331132     1.42505260
H       -0.58607444     2.78309901    -0.02168759
