     6
  Step:   120            Position(A)                                  Velocity(au)
C        -0.03580043     0.07608995    -0.22493852    -0.00001625     0.00004265    -0.00003759
N        -0.04099857     0.01690957     1.53441207     0.00006443     0.00002092     0.00004998
H         0.89414254    -0.37506960    -0.60865686     0.00023893    -0.00047688     0.00054912
H         0.77760119    -0.60906689     1.77497200    -0.00025852     0.00031793    -0.00050762
H        -0.88161100    -0.57122017     1.75115334    -0.00039810    -0.00053201    -0.00054584
H        -1.00673745    -0.25609708    -0.66777380    -0.00028407    -0.00010792     0.00025763
