6

C       -0.02939921     0.01872020     0.00274423
N       -0.06181699    -0.06608758     1.32210331
H        0.94426117     0.05489838    -0.57999997
H        0.91727595    -0.03873510     1.78512472
H       -0.86458028    -0.04852801     1.85157001
H       -1.00054069     0.05789806    -0.56976514
