     6
  Step:   120            Position(A)                                  Velocity(au)
C        -0.03664059    -0.01664078    -0.20293248    -0.00000031    -0.00010294     0.00013775
N        -0.05011849    -0.14270080     1.49672886    -0.00000132    -0.00001930    -0.00011578
H         0.83094680     0.61333323    -0.52921965    -0.00052452     0.00159575     0.00106725
H         0.85201909     0.11070749     1.95083377    -0.00010196    -0.00096186    -0.00021947
H        -0.75391518     0.59775280     1.77059507     0.00072746     0.00154262    -0.00084171
H        -1.00891618     0.18972420    -0.68107719    -0.00007894    -0.00068163    -0.00003854
