     6
  Step:   120            Position(A)                                  Velocity(au)
C        -0.04071292    -0.02969321    -0.12625569    -0.00000072    -0.00016645     0.00012566
N        -0.04682453    -0.13001507     1.42489947     0.00002477    -0.00005119    -0.00018074
H         0.92848187     0.36664145    -0.49994962    -0.00041282     0.00072772     0.00088179
H         0.83136976     0.29161306     1.81509336    -0.00005162     0.00050641    -0.00047859
H        -0.88600705     0.37800319     1.76169672    -0.00029463     0.00074543    -0.00022922
H        -0.95094453     0.45454606    -0.48124754     0.00042336     0.00071524     0.00084026
