     6
  Step:   120            Position(A)                                  Velocity(au)
C        -0.01324805     0.07706323    -0.02068060     0.00008825     0.00004903    -0.00004325
N        -0.05329708    -0.05013592     1.34452466     0.00000578    -0.00007923    -0.00007479
H         0.67406730    -0.64700448    -0.58372965    -0.00091915    -0.00128791     0.00062755
H         0.81616172     0.14161606     1.87901411    -0.00078519     0.00163508     0.00032551
H        -0.84098696    -0.58110168     1.80790160     0.00057682    -0.00105457     0.00017894
H        -0.96366588     0.19513500    -0.64869620    -0.00000439     0.00122418     0.00042268
