     6
  Step:   120            Position(A)                                  Velocity(au)
C        -0.03062934    -0.00909718    -0.02423029     0.00006850    -0.00000017    -0.00006955
N        -0.03015316    -0.02295620     1.34873682     0.00002842    -0.00007171    -0.00008020
H         0.79359704     0.51820506    -0.60331575    -0.00093070     0.00150870     0.00077271
H         0.62191611    -0.69525268     1.81416536    -0.00135419    -0.00077140     0.00021816
H        -0.91164328     0.22112432     1.88626793     0.00079319     0.00159775     0.00045647
H        -0.93279899    -0.28644287    -0.65886394     0.00028046    -0.00133650     0.00049597
