6

C       -0.01221456     0.02096268     0.02166205
N       -0.08986201    -0.05605706     1.29828435
H        0.09858015    -0.90648533    -0.54993514
H        0.04841833     0.75022117     1.92453786
H        0.13979758    -0.92713705     1.78497977
H       -0.10542497     0.94282302    -0.56707694
