12

C       -0.03970519    -0.03649205     0.00070644
N       -0.05134457    -0.09344482     1.32188432
H        0.74299683     0.66560138    -0.44775090
H        0.79425033    -0.29835449     1.89765759
H       -0.65331104     0.65876084     1.77136982
H       -0.91023514     0.03760868    -0.70702988
C       -0.03897361    -0.03654052     0.00256692
N       -0.05181068    -0.09279925     1.32007222
H        0.73841074     0.67046924    -0.44540051
H        0.79223410    -0.30738174     1.89527297
H       -0.64887678     0.66223004     1.77170045
H       -0.91030740     0.02990537    -0.70431417
