6

C       -0.03897361    -0.03654052     0.00256692
N       -0.05181068    -0.09279925     1.32007222
H        0.73841074     0.67046924    -0.44540051
H        0.79223410    -0.30738174     1.89527297
H       -0.64887678     0.66223004     1.77170045
H       -0.91030740     0.02990537    -0.70431417
