12

C       -0.03909948     0.06107583    -0.12002927
N       -0.03942385    -0.00059398     1.42658431
H        0.93904506    -0.28388076    -0.52303031
H        0.80671510    -0.49594975     1.80505776
H       -0.92805332    -0.41717183     1.79172281
H       -1.01689288    -0.19230240    -0.57575527
C       -0.03961553     0.06252801    -0.11832631
N       -0.03965192     0.00011967     1.42520122
H        0.93915546    -0.29444795    -0.51792558
H        0.80935742    -0.50106812     1.80269166
H       -0.92428318    -0.42209053     1.78439571
H       -1.01409711    -0.19891954    -0.57223953
