6

C       -0.03961553     0.06252801    -0.11832631
N       -0.03965192     0.00011967     1.42520122
H        0.93915546    -0.29444795    -0.51792558
H        0.80935742    -0.50106812     1.80269166
H       -0.92428318    -0.42209053     1.78439571
H       -1.01409711    -0.19891954    -0.57223953
