6

C       -0.07244902     0.00596796     0.01883453
N        0.01397458    -0.05520596     1.30176220
H        0.03815811    -0.84861515    -0.65765509
H       -0.13484042     0.78915109     1.86047418
H       -0.24124387    -0.90828893     1.81002404
H       -0.20589972     0.99401976    -0.43498696
