14

C       -5.50331826    -0.66930199    -0.76397136
C       -4.51759548    -0.63214936     0.05808040
H       -6.01626098     0.14448143    -1.22749640
H       -5.97003344    -1.65214466    -1.00866738
H       -4.22927327    -1.38929363     0.72592166
C       -4.07277238     0.59591674     0.78756089
C       -2.70707530     1.03802440     0.75139586
H       -4.68633453     0.92516410     1.80152120
H       -2.36159840     1.71509243     1.56326419
C       -1.75389626     0.78517124    -0.19366360
H       -1.66103845    -0.16749266    -0.74649010
N       -0.91077233     1.79011945    -0.23073831
H        0.06384150     2.05645790    -0.54972963
H       -1.35811339     2.81464780     0.04258915
