    14
  Step:   600            Position(A)                                  Velocity(au)
C        -5.71132484    -1.12423162     0.42132051     0.00057147    -0.00028328     0.00076058
C        -5.02854307    -0.41406194    -0.44135841    -0.00017328    -0.00012801    -0.00068478
H        -5.74645335    -0.68966797     1.44004348    -0.00041628     0.00088754     0.00121780
H        -6.27998123    -2.00710155     0.15282902     0.00031120    -0.00127278     0.00092242
H        -5.10576032    -0.58631977    -1.51827793    -0.00121722     0.00041421     0.00021516
C        -3.88185153     0.41470282    -0.35608434    -0.00029046     0.00027117    -0.00045173
C        -2.66294957     0.58666294     0.44976862    -0.00101011     0.00000493    -0.00053178
H        -3.76542775     0.99871754    -1.25828972    -0.00046526    -0.00313905    -0.00052805
H        -2.62483087     0.14720678     1.48822824    -0.00177279     0.00072499    -0.00239500
C        -1.77011859     1.62228203    -0.07368792    -0.00003946     0.00062819     0.00096333
H        -1.93186134     1.76134480    -1.14807413     0.00098582     0.00067035    -0.00120434
N        -0.52181809     1.84670143     0.32685883     0.00098311    -0.00011242     0.00029484
H         0.03105832     2.63795762    -0.01905952     0.00043811    -0.00245758    -0.00075263
H        -0.24080896     1.78270462     1.33497322    -0.00030219    -0.00014021    -0.00223525
