6

C   -0.03265176   -0.00232717    0.00532054    0.00005484   -0.00000255   -0.00007352
N   -0.03557539   -0.04459429    1.31327538   -0.00005003    0.00006243   -0.00005335
H    0.91377050    0.06931903   -0.54748644   -0.00057408   -0.00023425    0.00063481
H    0.80902113   -0.13873572    1.83334710    0.00073244   -0.00026727    0.00062208
H   -1.01365007   -0.06133761    1.82307161   -0.00001535   -0.00041968    0.00037653
H   -1.03863129    0.10840492   -0.53002805   -0.00010119    0.00008403   -0.00001591
