12

C       -0.03262789     0.03436974     0.01423758
N       -0.05086926    -0.03262457     1.31643889
H        0.68631976    -0.59584190    -0.60682854
H        0.74301298     0.26514589     1.92818165
H       -0.70759562    -0.72669230     1.77806280
H       -0.83899315     0.43141787    -0.67072031
C       -0.03220814     0.03428856     0.01547014
N       -0.05119512    -0.03279508     1.31519131
H        0.68082368    -0.60280543    -0.60481000
H        0.73921602     0.27379141     1.92656779
H       -0.70175057    -0.73266511     1.77666541
H       -0.83601867     0.43904556    -0.66707790
