6

C       -0.04341305     0.03846736    -0.00313812
N       -0.04013078    -0.05659160     1.33660502
H        0.86968624     0.27069962    -0.67066518
H        0.75066091    -0.52468859     1.83270879
H       -0.87209862     0.30136026     1.87363873
H       -0.88618916    -0.38911079    -0.68018215
