     6
  Step:   120            Position(A)                                  Velocity(au)
C        -0.04021581    -0.01094581    -0.10049914    -0.00007245    -0.00005237     0.00056531
N        -0.03513200    -0.11819524     1.40997184     0.00007872     0.00007058    -0.00051463
H         0.86249282    -0.19235154    -0.72162901    -0.00051900    -0.00134739     0.00019709
H         0.58261662     0.65737046     1.74926661    -0.00130137     0.00132609    -0.00040196
H        -0.93724268    -0.12077928     1.95732263     0.00022207    -0.00153289    -0.00024086
H        -0.75340443     0.75889847    -0.48882908     0.00136777     0.00119741     0.00086100
