14

C       -4.99830013    -0.14222117    -0.83242197
C       -4.33851339    -0.57400335     0.22706904
H       -5.41969446     0.83326575    -0.79809568
H       -5.17360402    -0.74852678    -1.71388224
H       -3.90669890    -1.54191637     0.54612107
C       -4.21009989     0.57553082     1.16561445
C       -3.10339161     1.14705941     0.68986277
H       -5.13637214     1.02634352     1.64306578
H       -2.85043003     2.27854239     0.60665873
C       -2.07023713     0.89346485    -0.46463173
H       -2.39495722     1.05760330    -1.58465614
N       -0.80620032     1.04073120    -0.19858283
H       -0.17155054     1.19860112    -1.02348606
H       -0.64177715     1.43595756     0.73839000
