     6
  Step:   120            Position(A)                                  Velocity(au)
C        -0.03301193     0.03343421    -0.01383103    -0.00000388    -0.00005474     0.00062923
N        -0.04001578    -0.07081385     1.33969051     0.00007322     0.00008061    -0.00056233
H         0.73206150    -0.49107320    -0.67622253    -0.00088028    -0.00121674     0.00034350
H         0.72511565     0.37851497     1.89212589    -0.00114045     0.00108423    -0.00034884
H        -0.85869898    -0.40617754     1.90134802     0.00026944    -0.00144120    -0.00029933
H        -0.86196427     0.43460718    -0.67720327     0.00077996     0.00110583     0.00062110
