     6
  Step:   120            Position(A)                                  Velocity(au)
C        -0.04447362     0.05347346     0.00519245    -0.00001861     0.00009384    -0.00031659
N        -0.05297131    -0.08806374     1.32892085    -0.00007762     0.00000513     0.00018403
H         0.86973828     0.28822589    -0.63937801     0.00023734     0.00131626     0.00043591
H         0.80543880    -0.39619535     1.83346797    -0.00015589    -0.00161893     0.00002253
H        -0.79271602     0.44865659     1.85589958     0.00099026     0.00103187     0.00017751
H        -0.82933179    -0.42390314    -0.68699100     0.00022873    -0.00191873     0.00057922
