6

C   -0.03320660    0.01371615    0.05138227   -0.00009682    0.00008731   -0.00000398
N   -0.04218329   -0.05138228    1.27329020    0.00010352    0.00005638   -0.00005283
H    0.91437793   -0.02930338   -0.52255372   -0.00037868   -0.00057672    0.00010233
H    0.79563271   -0.09843712    1.76616021    0.00029673   -0.00034853    0.00059406
H   -0.95546894   -0.06613916    1.88631761   -0.00086012   -0.00051063   -0.00002200
H   -0.98559383    0.07468532   -0.54424532    0.00065723   -0.00038799    0.00010716
