6

C   -0.03423559    0.00273778    0.03319476   -0.00010589    0.00003929   -0.00026223
N   -0.04549408   -0.05771940    1.27645791    0.00022385    0.00005292    0.00023342
H    0.92528167    0.05032087   -0.54080970    0.00010326   -0.00039704    0.00017773
H    0.81016127   -0.06803660    1.91505652   -0.00089791   -0.00021512   -0.00097296
H   -0.90466011    0.00148671    1.86259773   -0.00168542   -0.00048968    0.00055913
H   -1.00356542    0.11591703   -0.47846143    0.00063105   -0.00010164    0.00011709
