6

C   -0.04006817    0.01888853    0.00811738   -0.00000357   -0.00006354   -0.00020973
N   -0.04888676   -0.05697544    1.31803661   -0.00019806   -0.00008989    0.00013410
H    0.94329970   -0.00716767   -0.52741876    0.00033308    0.00063550   -0.00047139
H    0.92141949   -0.11876749    1.81807828    0.00153407    0.00030703    0.00072802
H   -0.91583330   -0.02011492    1.79236977    0.00058195    0.00078274   -0.00038590
H   -1.00502096    0.04294600   -0.60361637    0.00034574    0.00028103    0.00076497
