6

C   -0.03547998    0.02272099    0.02905030   -0.00000023   -0.00009932   -0.00010371
N   -0.05062376   -0.06767623    1.28719088   -0.00007599    0.00006581    0.00013010
H    0.91857712   -0.00092095   -0.49425687    0.00042376    0.00044776   -0.00000509
H    0.84945738   -0.07690583    1.86475815    0.00107525   -0.00032112    0.00010122
H   -0.84865953    0.01938520    1.84708576   -0.00000255   -0.00018000   -0.00018881
H   -1.00604523    0.05837210   -0.55896788   -0.00043770    0.00032235   -0.00047942
