6

C   -0.04154246    0.01611421    0.03768857   -0.00011383   -0.00009238   -0.00007087
N   -0.03696563   -0.06532208    1.28215290    0.00012831    0.00004592    0.00009705
H    0.92682153   -0.02821385   -0.53335350    0.00037475    0.00019546    0.00007860
H    0.80994655   -0.08328158    1.85044850   -0.00065466   -0.00000138   -0.00098628
H   -0.95767758    0.05417326    1.84268551   -0.00085404   -0.00022099    0.00037807
H   -0.98331874    0.10326544   -0.53408598    0.00070735    0.00048964    0.00002542
