6

C   -0.03183573    0.01964345    0.00526402   -0.00000285    0.00012169   -0.00011984
N   -0.04257564   -0.06664491    1.31637237   -0.00001565   -0.00002751    0.00016928
H    0.95087204    0.00101605   -0.57612697    0.00037523   -0.00038365   -0.00003622
H    0.80722044   -0.04547060    1.77740597   -0.00004787   -0.00015167   -0.00088666
H   -0.98977749   -0.02517262    1.85423648   -0.00010588    0.00004294    0.00017796
H   -1.01025044    0.09189827   -0.51897465    0.00003000   -0.00057545   -0.00017952
