6

C   -0.03637052    0.00529307    0.00004061    0.00008687    0.00004021    0.00012695
N   -0.04776755   -0.06329356    1.31072105    0.00020357   -0.00009186   -0.00009873
H    0.97006923    0.01726942   -0.54627497   -0.00073405   -0.00014783    0.00005969
H    0.85223052   -0.06184272    1.83640808   -0.00137866    0.00045632   -0.00070543
H   -0.94156742    0.00946356    1.91952306   -0.00143601    0.00047662    0.00044744
H   -0.99648203    0.18180948   -0.53233974   -0.00031530    0.00001228    0.00005764
