6

C   -0.04276442    0.00900995    0.04056970    0.00000349    0.00013186   -0.00014167
N   -0.04822114   -0.04641327    1.28243601   -0.00017154   -0.00009251    0.00019586
H    0.95139903   -0.00502521   -0.53698351    0.00057058   -0.00054785   -0.00003335
H    0.86936915   -0.11385610    1.83380499    0.00069904    0.00033186    0.00019582
H   -0.89949478   -0.08957971    1.82330839    0.00162378    0.00022534   -0.00085036
H   -0.95452952    0.07629478   -0.53270128   -0.00055120   -0.00029501   -0.00034576
