6

C       -0.02021564    -0.00447432     0.02788847
N       -0.03457985    -0.04990743     1.28830279
H        0.11186635    -0.85497269    -0.64236577
H       -0.26176863     0.80053731     1.83882831
H       -0.25659204    -0.86852336     1.85695608
H       -0.08501916     1.00002815    -0.39643007
