     6
  Step:   300            Position(A)                                  Velocity(au)
C        -0.03573851     0.01173338     0.02782478     0.00003362     0.00002348     0.00002070
N        -0.04923779    -0.05378241     1.29142784    -0.00001840    -0.00001690    -0.00000877
H         0.23816823     0.94249504    -0.47598824     0.00100906    -0.00021874     0.00021996
H        -0.02722052    -0.94317184     1.80015689     0.00120298    -0.00017178    -0.00054016
H         0.00091086     0.78167622     1.88156362    -0.00115958     0.00028200    -0.00034995
H        -0.31469648    -0.84321544    -0.59137469    -0.00119726     0.00006364     0.00054539
