     6
  Step:   300            Position(A)                                  Velocity(au)
C        -0.01140696     0.01700256     0.02142199    -0.00008605     0.00013593     0.00013996
N        -0.07585443    -0.05437931     1.29781444     0.00030269    -0.00002535    -0.00016997
H         0.31908137     0.94025994    -0.46046012    -0.00049724     0.00005715    -0.00075345
H         0.01624948    -0.98076972     1.73179844    -0.00228037    -0.00024236     0.00023850
H        -0.03374296     0.79775360     1.86029258    -0.00096099    -0.00040865     0.00034152
H        -0.32449293    -0.87395258    -0.52973621     0.00055776    -0.00067372     0.00086772
