     6
  Step:     0            Position(A)                                  Velocity(au)
C        -0.03999720     0.00574514     0.00935782    -0.00005204    -0.00005278    -0.00016503
N        -0.05100032    -0.06420879     1.30792960    -0.00007921     0.00013279     0.00031141
H         0.90939092     0.06639709    -0.46952583     0.00083069    -0.00004192    -0.00086231
H         0.92511157    -0.06371051     1.82929089     0.00016065    -0.00043992    -0.00025568
H        -0.88649673     0.01316158     1.82181666     0.00079648    -0.00100298    -0.00114184
H        -0.97561575     0.13818312    -0.57649891    -0.00006703     0.00026846    -0.00010102
     6
  Step:     1            Position(A)                                  Velocity(au)
C        -0.04030393     0.00545751     0.00838036    -0.00005919    -0.00005246    -0.00019171
N        -0.05135568    -0.06349499     1.30971690    -0.00004922     0.00012829     0.00034000
H         0.91435926     0.06622356    -0.47466978     0.00097376    -0.00002249    -0.00101170
H         0.92531557    -0.06610355     1.82765794    -0.00008554    -0.00043499    -0.00034007
H        -0.88266923     0.00775016     1.81607973     0.00058221    -0.00097540    -0.00094249
H        -0.97602266     0.13966929    -0.57717411    -0.00008121     0.00027526    -0.00014595
     6
  Step:     2            Position(A)                                  Velocity(au)
C        -0.04064470     0.00517132     0.00726070    -0.00006445    -0.00005223    -0.00021693
N        -0.05153871    -0.06280547     1.31164885    -0.00001659     0.00012392     0.00036424
H         0.92004287     0.06615112    -0.48059284     0.00109091    -0.00000502    -0.00114616
H         0.92417590    -0.06846891     1.82557090    -0.00032865    -0.00042971    -0.00042052
H        -0.88012788     0.00249165     1.81150674     0.00033008    -0.00094743    -0.00071902
H        -0.97650412     0.14119423    -0.57809546    -0.00009394     0.00028252    -0.00019086
     6
  Step:     3            Position(A)                                  Velocity(au)
C        -0.04100901     0.00488605     0.00600703    -0.00006780    -0.00005209    -0.00024056
N        -0.05153715    -0.06213922     1.31370188     0.00001778     0.00011978     0.00038421
H         0.92629435     0.06616861    -0.48720934     0.00118040     0.00001036    -0.00126425
H         0.92171998    -0.07080479     1.82305730    -0.00056449    -0.00042408    -0.00049469
H        -0.87905796    -0.00261515     1.80821337     0.00004942    -0.00092016    -0.00047809
H        -0.97705043     0.14276021    -0.57926218    -0.00010455     0.00029011    -0.00023542
     6
  Step:     4            Position(A)                                  Velocity(au)
C        -0.04138656     0.00460135     0.00462829    -0.00006930    -0.00005199    -0.00026244
N        -0.05134419    -0.06149480     1.31585316     0.00005278     0.00011591     0.00040005
H         0.93295966     0.06626445    -0.49442720     0.00124134     0.00002360    -0.00136489
H         0.91799880    -0.07310947     1.82015761    -0.00078847    -0.00041810    -0.00056012
H        -0.87958713    -0.00757736     1.80627517    -0.00024819    -0.00089454    -0.00022760
H        -0.97764817     0.14436876    -0.58067164    -0.00011236     0.00029784    -0.00027927
     6
  Step:     5            Position(A)                                  Velocity(au)
C        -0.04176757     0.00431697     0.00313428    -0.00006907    -0.00005191    -0.00028237
N        -0.05095946    -0.06087046     1.31808092     0.00008716     0.00011237     0.00041194
H         0.93988231     0.06642691    -0.50214969     0.00127359     0.00003469    -0.00144727
H         0.91308923    -0.07538140     1.81692614    -0.00099549    -0.00041179    -0.00061413
H        -0.88177466    -0.01240699     1.80572205    -0.00054949    -0.00087130     0.00002378
H        -0.97828035     0.14602046    -0.58231911    -0.00011674     0.00030553    -0.00032193
     6
  Step:     6            Position(A)                                  Velocity(au)
C        -0.04214302     0.00403282     0.00153587    -0.00006729    -0.00005183    -0.00030013
N        -0.05038970    -0.06026423     1.32036450     0.00011957     0.00010917     0.00042005
H         0.94690740     0.06664439    -0.51027699     0.00127776     0.00004368    -0.00151091
H         0.90709667    -0.07761919     1.81343200    -0.00117999    -0.00040518    -0.00065392
H        -0.88560491    -0.01711939     1.80653556    -0.00084054    -0.00085085     0.00026711
H        -0.97892662     0.14771473    -0.58419730    -0.00011710     0.00031291    -0.00036290
     6
  Step:     7            Position(A)                                  Velocity(au)
C        -0.04250499     0.00374899    -0.00015485    -0.00006415    -0.00005170    -0.00031548
N        -0.04964906    -0.05967409     1.32268418     0.00014867     0.00010631     0.00042452
H         0.95388515     0.06690556    -0.51870761     0.00125502     0.00005061    -0.00155555
H         0.90015775    -0.07982176     1.80975992    -0.00133602    -0.00039835    -0.00067660
H        -0.89098610    -0.02173139     1.80864929    -0.00110769    -0.00083328     0.00049385
H        -0.97956364     0.14944967    -0.58629611    -0.00011297     0.00031975    -0.00040160
     6
  Step:     8            Position(A)                                  Velocity(au)
C        -0.04284664     0.00346570    -0.00192451    -0.00005987    -0.00005151    -0.00032817
N        -0.04875897    -0.05909810     1.32502091     0.00017317     0.00010379     0.00042545
H         0.96067335     0.06719950    -0.52733933     0.00120710     0.00005557    -0.00158122
H         0.89244227    -0.08198855     1.80601057    -0.00145753    -0.00039142    -0.00067939
H        -0.89775481    -0.02625939     1.81195244    -0.00133869    -0.00081836     0.00069642
H        -0.98016574     0.15122201    -0.58860234    -0.00010400     0.00032578    -0.00043744
     6
  Step:     9            Position(A)                                  Velocity(au)
C        -0.04316239     0.00318334    -0.00375844    -0.00005468    -0.00005123    -0.00033800
N        -0.04774749    -0.05853443     1.32735600     0.00019198     0.00010156     0.00042291
H         0.96714012     0.06751582    -0.53607071     0.00113625     0.00005869    -0.00158830
H         0.88415284    -0.08411985     1.80229964    -0.00153886    -0.00038459    -0.00065980
H        -0.90568607    -0.03071768     1.81629657    -0.00152368    -0.00080562     0.00086876
H        -0.98070568     0.15302704    -0.59109960    -0.00009004     0.00033077    -0.00046987
