14

C       -5.15090105    -0.36300901     1.07559621
C       -4.75979692    -0.13419561    -0.17107134
H       -4.80329826     0.04439652     2.02600968
H       -6.08156456    -0.80368790     1.30193254
H       -5.39491666    -0.75131328    -0.79420131
C       -3.59425881     0.06544640    -1.08899813
C       -2.54806896     0.89813253    -0.96584297
H       -3.58405607    -0.70330056    -1.91491336
H       -1.79683208     0.64609916    -1.59612229
C       -2.32408754     1.39069056     0.40326418
H       -3.13687493     1.33473707     1.14739450
N       -1.07221658     1.32477082     0.83663174
H       -1.09344238     1.12541882     1.87896998
H       -0.19941551     1.21014004     0.24062502
