     6
  Step:   120            Position(A)                                  Velocity(au)
C        -0.03760260    -0.01922847    -0.23215946    -0.00002338    -0.00006468    -0.00003334
N        -0.04783368    -0.15085569     1.52590504    -0.00000197    -0.00006081     0.00007155
H         0.93678396     0.35996818    -0.62032889     0.00042704     0.00047867     0.00042620
H         0.78403617     0.37564313     1.83303909    -0.00019003     0.00038315    -0.00086052
H        -0.85315088     0.46376292     1.83296301     0.00016622     0.00031331    -0.00067632
H        -0.96782690     0.45634540    -0.59172679    -0.00009725     0.00044055     0.00051365
