     6
  Step:   300            Position(A)                                  Velocity(au)
C        -0.02611034     0.00024775     0.02952040    -0.00001543     0.00001707    -0.00003538
N        -0.03150059    -0.05125566     1.28682153     0.00008260     0.00004325     0.00005881
H         0.06844677    -0.84876742    -0.64527058    -0.00165303     0.00010842    -0.00019499
H        -0.31372375     0.77494495     1.84620200    -0.00227198    -0.00082360     0.00008430
H        -0.17277583    -0.88251039     1.86803318     0.00122853     0.00008854     0.00025424
H        -0.04599311     0.99586993    -0.41081815     0.00173251    -0.00017773    -0.00053916
