     6
  Step:   300            Position(A)                                  Velocity(au)
C        -0.00748471     0.00753001     0.02075363    -0.00003293    -0.00001275     0.00010076
N        -0.07495227    -0.04613078     1.29516562    -0.00001421    -0.00000883    -0.00006280
H         0.06758780    -0.90687411    -0.56349743     0.00106451     0.00025586    -0.00030082
H        -0.14186281     0.76274903     1.91642360     0.00110806     0.00013115    -0.00006907
H         0.03483791    -0.92702619     1.80505928    -0.00086776    -0.00002023     0.00018818
H        -0.04275568     0.95267888    -0.51133195    -0.00071501    -0.00009216    -0.00014620
