14

C   -6.00538588   -0.80965677   -0.22561095    0.00014755    0.00019652    0.00015724
C   -4.68901817   -0.69301763    0.21223606   -0.00046791   -0.00040002   -0.00006575
H   -6.39098329    0.06367441   -0.65868680    0.00112766   -0.00037541    0.00002941
H   -6.60507083   -1.73985990   -0.12832700   -0.00010063    0.00048084   -0.00094852
H   -4.18613571   -1.57752198    0.65999437    0.00009975    0.00035220    0.00029914
C   -3.93014227    0.51096380    0.01500512   -0.00001359   -0.00008047   -0.00006705
C   -2.57289228    0.49046566    0.29659295    0.00043504    0.00026176   -0.00015030
H   -4.42162113    1.33777238   -0.45616146    0.00048085    0.00087625   -0.00048110
H   -2.13566110   -0.38081624    0.71058649   -0.00031342   -0.00117326    0.00072122
C   -1.80229042    1.62416714   -0.08836408   -0.00036456    0.00000599    0.00042471
H   -2.33093674    2.42418986   -0.74528347   -0.00103764   -0.00048822   -0.00095472
N   -0.53519513    1.82705762    0.18783484    0.00020608   -0.00003646   -0.00023522
H   -0.07314439    2.62347812   -0.11344027    0.00013655    0.00073664   -0.00012201
H    0.00930094    1.11972376    0.63417990   -0.00011731    0.00029096    0.00116423
