14

C       -5.93296038    -0.72380293    -0.09041174
C       -4.62468668    -0.77601472     0.31477900
H       -6.17292384     0.06008021    -0.89739069
H       -6.79342699    -1.16481818     0.40196418
H       -4.03430878    -1.48192686     1.00874558
C       -3.83573625     0.33737158    -0.29678017
C       -2.56359936     0.62651798    -0.07412963
H       -4.34825076     1.27923559    -0.76491094
H       -1.99349329    -0.31419629     0.23356261
C       -1.94718763     1.78559938     0.21786811
H       -2.39058076     2.73949089     0.51670303
N       -0.63582385     1.67797149     0.23728409
H        0.00749116     2.46260335     0.50578740
H       -0.14789552     0.85277244    -0.13743116
