     6
  Step:   120            Position(A)                                  Velocity(au)
C        -0.03625089    -0.01490749    -0.17011551     0.00005123    -0.00008471     0.00033228
N        -0.05549163    -0.13607600     1.47041256    -0.00008739     0.00004346    -0.00030315
H         0.78766643     0.65941443    -0.48920923    -0.00088825     0.00157197     0.00084692
H         0.87038225     0.00686487     1.97402751    -0.00001783    -0.00117285    -0.00006656
H        -0.68474646     0.65712903     1.72273890     0.00148617     0.00112095    -0.00055239
H        -0.98314055     0.07543459    -0.72177629     0.00002395    -0.00111464     0.00002530
