     6
  Step:   120            Position(A)                                  Velocity(au)
C        -0.06181704    -0.06805802    -0.03187437    -0.00012686    -0.00005788    -0.00008276
N        -0.04108621    -0.04095443     1.34479174    -0.00002077     0.00007820    -0.00005191
H         0.91583028     0.09162490    -0.62758244     0.00025426    -0.00092413     0.00053477
H         0.81933525     0.24107869     1.87022437    -0.00033702     0.00093794     0.00023944
H        -0.89943556    -0.35802257     1.85315663     0.00091484    -0.00137005     0.00009353
H        -0.74109652     0.73562141    -0.51163663     0.00096822     0.00095932     0.00083980
