14

C       -5.48269881    -1.25394388    -0.43521197
C       -5.06252541    -0.21486465     0.35018771
H       -5.09463653    -1.53206545    -1.41870167
H       -6.37550054    -1.84008128    -0.13591999
H       -5.70672047     0.13643100     1.22620884
C       -3.85430145     0.78805575     0.38416809
C       -2.58721666     0.30215250    -0.07176856
H       -3.97598780     1.86573826     0.74807083
H       -2.43540424    -0.71830958    -0.24649060
C       -1.39180199     0.98814454     0.21109034
H       -0.63898596     0.68954968     1.06721255
N       -1.05958587     2.24690394    -0.08397009
H       -0.26077525     2.72275628     0.25028544
H       -1.76159267     2.82981824    -0.53506353
