     6
  Step:   120            Position(A)                                  Velocity(au)
C        -0.04224221    -0.02208715     0.00062872    -0.00010460    -0.00001068     0.00031260
N        -0.03635116    -0.09425113     1.32300750     0.00007887     0.00010522    -0.00031173
H         0.80426829    -0.22395452    -0.71255084    -0.00041547    -0.00138189     0.00048977
H         0.61080661     0.59339821     1.79037493    -0.00087105     0.00082626    -0.00000316
H        -0.90531692    -0.23123058     1.90618663     0.00037874    -0.00167539    -0.00046582
H        -0.71419299     0.76494706    -0.48443507     0.00105815     0.00089613     0.00058624
