6

C       -0.02094922     0.01024455     0.01550523
N       -0.05737409    -0.05545928     1.30026602
H        0.26709739    -0.86426042    -0.56251385
H        0.01161561     0.82046128     1.82627934
H       -0.15703030    -0.94988363     1.78883192
H       -0.28770046     0.97250109    -0.41426492
