     6
  Step:   120            Position(A)                                  Velocity(au)
C        -0.04212571     0.02367457     0.00365925     0.00001196    -0.00004064     0.00036407
N        -0.05609398    -0.07862596     1.32019115    -0.00004429     0.00008215    -0.00033952
H         0.78478004     0.51546527    -0.58124381    -0.00083108     0.00138832     0.00059922
H         0.70021059    -0.54271051     1.88398181    -0.00074760    -0.00155290    -0.00024382
H        -0.61383627     0.61303546     1.88188184     0.00133667     0.00093412    -0.00037830
H        -0.80260631    -0.44506416    -0.68201758     0.00071496    -0.00142682     0.00040265
