6

C       -0.03507924     0.00899133     0.00829554
N       -0.04463165    -0.05406352     1.30449378
H        0.91735155     0.02193379    -0.51991759
H        0.79393531    -0.20336744     1.86759916
H       -0.90250697     0.09686449     1.84379733
H       -0.98348583     0.05894525    -0.52600030
