6

C   -0.04111819    0.00977079    0.00883719    0.00001357    0.00007083   -0.00026084
N   -0.03175476   -0.06231988    1.30493451    0.00001414   -0.00003384    0.00018704
H    0.90112773    0.02617763   -0.50548169    0.00023457   -0.00031297    0.00012625
H    0.77684773   -0.05554547    1.85844471    0.00027643    0.00010025    0.00014515
H   -0.96748580   -0.02015571    1.83163167   -0.00044989   -0.00003626    0.00063686
H   -0.99218575    0.12933574   -0.53168701   -0.00041922   -0.00012474   -0.00039929
