12

C       -0.03530633     0.06416028    -0.16095002
N       -0.04688417     0.00243277     1.47359903
H        0.77833280    -0.59038418    -0.57212166
H        0.85087876    -0.22144967     1.93647873
H       -0.77230286    -0.74142941     1.69408007
H       -0.99761950     0.08514730    -0.72615534
C       -0.03489927     0.06456576    -0.15909314
N       -0.04719389     0.00238407     1.47202220
H        0.77172594    -0.59936673    -0.56750123
H        0.85098649    -0.21459409     1.93698161
H       -0.76564358    -0.74829184     1.68992898
H       -0.99832621     0.08998178    -0.72734209
