14

C       -5.30813773    -1.05051245     0.41141415
C       -4.90660969    -0.04895378    -0.41824224
H       -4.66443441    -1.21923518     1.32388986
H       -6.32195251    -1.46302595     0.23636672
H       -5.56815430     0.29015610    -1.31386693
C       -3.80439099     0.83043962    -0.11132784
C       -2.56497443     0.04153939     0.05082309
H       -3.74925486     1.89324786    -0.16639150
H       -2.54891212    -1.02182452    -0.32949258
C       -1.48385412     0.96884398    -0.11603783
H       -0.74251477     0.74604973    -0.95090484
N       -1.36432987     2.13202333     0.49942138
H       -0.75032894     2.72647095    -0.03287519
H       -1.36999078     2.22787816     1.49197987
