6

C       -0.04011153     0.01482819     0.03021260
N       -0.04508661    -0.05328110     1.28975291
H        0.13990313    -0.87351533    -0.57995568
H        0.04502023     0.76534126     1.89868762
H       -0.06155571    -0.94576651     1.79470599
H       -0.23181059     0.94787374    -0.50426976
