14

C   -5.94641075   -0.81179505   -0.21621155    0.00005344    0.00013670   -0.00013540
C   -4.73324500   -0.68210637    0.20232128    0.00006143    0.00011922   -0.00003979
H   -6.64853625   -0.11337304   -0.63326781    0.00097387   -0.00058352    0.00064240
H   -6.42385020   -1.76784604    0.00332470   -0.00086778    0.00038299    0.00014975
H   -4.15678841   -1.52513702    0.63250651    0.00005274   -0.00015000   -0.00021454
C   -3.95628794    0.50251841    0.01069286    0.00002124   -0.00000827    0.00008505
C   -2.56500612    0.53893980    0.28045288   -0.00020138   -0.00031938    0.00024261
H   -4.39643996    1.40050505   -0.37212924   -0.00051988   -0.00076361   -0.00010983
H   -2.11292848   -0.30326108    0.70308984    0.00039505    0.00012606   -0.00030789
C   -1.81035700    1.61012647   -0.15765974    0.00011454   -0.00026664   -0.00002355
H   -2.29931989    2.51812535   -0.56103770    0.00001056    0.00162506   -0.00045305
N   -0.53339418    1.79767440    0.24091046    0.00005066    0.00027452   -0.00004587
H   -0.02860450    2.64445943   -0.12111524   -0.00093090   -0.00128919    0.00025313
H    0.04515069    1.01127297    0.58951633   -0.00040465    0.00086948   -0.00085886
