     6
  Step:   120            Position(A)                                  Velocity(au)
C        -0.03368048     0.06619296    -0.19523110     0.00000910     0.00003511     0.00014761
N        -0.04880731     0.00544856     1.50247806    -0.00007894     0.00011354    -0.00005902
H         0.83167554    -0.49785957    -0.58507241    -0.00059047    -0.00151946     0.00072691
H         0.84746774    -0.38571814     1.88662159     0.00031659     0.00024174    -0.00020214
H        -0.80913117    -0.66244832     1.75838806     0.00129271    -0.00131109    -0.00161802
H        -1.00336633     0.01179194    -0.72047577    -0.00003030     0.00059257     0.00015449
