6

C       -0.13190189    -0.10576650    -0.03842269
N        0.04373540    -0.03420158     1.34316421
H        1.05316790    -0.22345445    -0.60203899
H        1.12703916     0.20178754     1.68214688
H       -1.64280888     0.18166806     2.01447165
H       -0.78675294     0.90569861    -0.40952282
