     6
  Step:   120            Position(A)                                  Velocity(au)
C        -0.04717926     0.06293443    -0.01922526    -0.00007232     0.00001098    -0.00004181
N        -0.05929020    -0.09988334     1.34056467    -0.00004396     0.00008260    -0.00007317
H         0.88154360     0.35237859    -0.60420001    -0.00007568     0.00129115     0.00036036
H         0.80762248    -0.41875549     1.85644776    -0.00062386    -0.00170768     0.00022506
H        -0.70680190     0.53810775     1.89295751     0.00125223     0.00067875     0.00023260
H        -0.80918861    -0.50342869    -0.65304505     0.00091999    -0.00154102     0.00069702
