     6
  Step:   300            Position(A)                                  Velocity(au)
C        -0.03786612     0.00596551     0.02294439    -0.00001336    -0.00001019     0.00017801
N        -0.04026499    -0.04849188     1.29436042     0.00002778     0.00000108    -0.00012340
H         0.04242207    -0.88199440    -0.60087452     0.00122415     0.00021423    -0.00011065
H        -0.06624676     0.77760483     1.89491807     0.00122103     0.00004135    -0.00006263
H        -0.06968839    -0.92260523     1.83389945    -0.00145510     0.00002892    -0.00009916
H        -0.10866515     0.96000124    -0.49620417    -0.00121695    -0.00017802    -0.00013393
