6

C       -0.03920804     0.02392449     0.02142611
N       -0.03899506    -0.04340911     1.31228708
H        0.79240649     0.37990257    -0.65580334
H        0.65997431    -0.64871849     1.82655178
H       -0.82707016     0.32591543     1.89202397
H       -0.82916554    -0.40873484    -0.66205060
