     6
  Step:   300            Position(A)                                  Velocity(au)
C        -0.02475075     0.00083172     0.02661902    -0.00005687    -0.00001993    -0.00006319
N        -0.03250596    -0.05523915     1.28954147     0.00018709     0.00003332     0.00006107
H         0.12383909    -0.84634596    -0.64736519    -0.00144877     0.00020124    -0.00041850
H        -0.22057684     0.80235401     1.84095466    -0.00264899    -0.00051782     0.00023881
H        -0.26791084    -0.87432728     1.85049903     0.00056402     0.00016278     0.00039668
H        -0.10165165     1.00624879    -0.38914429     0.00161146    -0.00007173    -0.00031261
