6

C       -0.01370254     0.00520016     0.01613462
N       -0.06727500    -0.05080917     1.30067174
H        0.24852748    -0.87948417    -0.55318468
H        0.01079624     0.83121812     1.81530217
H       -0.12772326    -0.93520680     1.81563469
H       -0.24639153     0.95779610    -0.45255648
