12

C       -0.03699944    -0.01845822    -0.21421778
N       -0.03925998    -0.14686536     1.50997017
H        0.93709306     0.19577043    -0.69383773
H        0.68002279     0.59256347     1.77697202
H       -0.92309256     0.21777630     1.89375470
H       -0.92051515     0.58493461    -0.51527413
C       -0.03698142    -0.01870832    -0.21357233
N       -0.03906625    -0.14696377     1.50954335
H        0.93707884     0.19129458    -0.69377179
H        0.67594112     0.59909731     1.77169917
H       -0.92430001     0.21278895     1.89249834
H       -0.91811872     0.59221165    -0.51057067
