12

C       -0.04078713     0.05289684    -0.00655103
N       -0.03167887    -0.01748939     1.33320188
H        0.83565738     0.24308374    -0.67875271
H        0.48088407    -0.86888862     1.70698030
H       -0.84349058     0.22090515     1.94081994
H       -0.75976960    -0.65217209    -0.52558123
C       -0.04140560     0.05247428    -0.00418083
N       -0.03124610    -0.01763652     1.33103110
H        0.83400636     0.25212347    -0.67541673
H        0.47401328    -0.87413029     1.70548490
H       -0.83956430     0.22987003     1.93913832
H       -0.75381844    -0.65785529    -0.52381776
