     6
  Step:   300            Position(A)                                  Velocity(au)
C        -0.03107990     0.01620486     0.01632596     0.00004697     0.00001110    -0.00008185
N        -0.04881149    -0.05541912     1.29803923    -0.00011618     0.00001619     0.00006629
H        -0.00712360    -0.90983381    -0.55954185    -0.00039377    -0.00017313     0.00006007
H        -0.19543020     0.76654171     1.89457611     0.00013460    -0.00023272     0.00044737
H         0.07795512    -0.94888841     1.77892564     0.00094376     0.00004837    -0.00013728
H        -0.03968735     0.99942503    -0.45447228     0.00037026     0.00000026    -0.00031595
