     6
  Step:   600            Position(A)                                  Velocity(au)
C         0.04943010     0.00792566     0.10921772    -0.00067605    -0.00038968     0.00029132
N        -0.12948434    -0.04389633     1.25454128     0.00006628     0.00060656     0.00003317
H        -0.52976235     0.30361998    -0.82301191     0.00309233    -0.00218542     0.00386915
H        -0.83785404     0.50711956     1.35518432     0.00452551     0.00090183    -0.00716630
H         0.23304897    -0.84251846     1.81573720     0.00027399    -0.00748239    -0.00128957
H         1.13192983    -0.12246386    -0.19133713    -0.00075702     0.00498043     0.00065429
