     6
  Step:   600            Position(A)                                  Velocity(au)
C         0.22097043     0.38133469    -0.03961375     0.00012978     0.00007525     0.00038193
N        -0.32104139    -0.47453770     1.38894846    -0.00008334    -0.00078673    -0.00013684
H         0.82160577    -0.56433132    -0.52260963    -0.00422325     0.00116584     0.00301014
H         0.75952188     1.24144764     0.36271077     0.00066102     0.00509174    -0.00391465
H        -0.45549682    -0.42022609     2.44379056     0.00062955     0.00604295    -0.00464374
H        -0.51025709     1.12386538    -0.22137390     0.00254428    -0.00226455     0.00289871
