12

C       -0.03473578     0.06941055     0.02272174
N       -0.04351479    -0.02660764     1.31832130
H        0.73487482    -0.43485241    -0.63858545
H        0.82771863    -0.15195537     1.88251134
H       -0.88618271    -0.42361057     1.77400128
H       -0.87073839    -0.11670787    -0.71650503
C       -0.03425696     0.06988565     0.02324264
N       -0.04374144    -0.02708594     1.31759713
H        0.73312666    -0.43968139    -0.63468743
H        0.82842554    -0.14605680     1.87928296
H       -0.88692755    -0.42609706     1.77302483
H       -0.87150838    -0.11430563    -0.71234184
