6

C       -0.03425696     0.06988565     0.02324264
N       -0.04374144    -0.02708594     1.31759713
H        0.73312666    -0.43968139    -0.63468743
H        0.82842554    -0.14605680     1.87928296
H       -0.88692755    -0.42609706     1.77302483
H       -0.87150838    -0.11430563    -0.71234184
