     6
  Step:   300            Position(A)                                  Velocity(au)
C        -0.03238550     0.01179963     0.01968757    -0.00002171     0.00002023    -0.00010770
N        -0.04888501    -0.05183693     1.29515267     0.00001773    -0.00000384     0.00009369
H         0.06061129     0.98326665    -0.45756420    -0.00014814     0.00006903    -0.00030817
H        -0.28890480    -0.91243363     1.78770522    -0.00030110     0.00004997     0.00005556
H         0.19731311     0.75000804     1.88108627     0.00017014    -0.00014466     0.00027706
H        -0.11671561    -0.91088244    -0.55166190     0.00029138    -0.00016209    -0.00004301
