     6
  Step:   300            Position(A)                                  Velocity(au)
C        -0.04060917     0.01024552     0.01573283    -0.00004719    -0.00000390     0.00017012
N        -0.03289911    -0.05237350     1.29802219     0.00011038    -0.00000052    -0.00013525
H        -0.02551303    -0.88560838    -0.58628549     0.00057734     0.00056290    -0.00039397
H        -0.24705306     0.75979231     1.88486289     0.00012723    -0.00013106     0.00010507
H         0.04407616    -0.90707002     1.85338143    -0.00115286     0.00006379     0.00050067
H        -0.04340456     0.96884579    -0.48518403    -0.00052330    -0.00044197    -0.00035945
