14

C   -6.02903066   -0.75113927   -0.06246143   -0.00034029    0.00010702   -0.00022373
C   -4.71496512   -0.70134424    0.07010493    0.00039492   -0.00000292   -0.00001634
H   -6.64808326    0.02810187   -0.39254001    0.00041126   -0.00011216    0.00057524
H   -6.46710144   -1.73697123    0.09148533   -0.00076844    0.00046945    0.00076210
H   -4.24866786   -1.61679479    0.33478923    0.00014154   -0.00068539   -0.00015780
C   -3.90400787    0.44607056   -0.02492123   -0.00011301   -0.00021918    0.00020761
C   -2.53519088    0.44967937    0.14526220   -0.00014199   -0.00009056   -0.00000506
H   -4.34890158    1.37301440   -0.33230223   -0.00002920    0.00054041   -0.00014103
H   -1.98311123   -0.45615710    0.53156727    0.00008980   -0.00205017    0.00107239
C   -1.82660227    1.65593330   -0.03831052    0.00043174    0.00014877   -0.00018662
H   -2.38223907    2.46904736   -0.43102345   -0.00047187    0.00008577    0.00076306
N   -0.52472974    1.85126377    0.26423538   -0.00009557    0.00017078    0.00008081
H   -0.12281949    2.71806625   -0.04007032   -0.00017281   -0.00081014   -0.00057863
H    0.04120902    1.03863423    0.51139972   -0.00062936    0.00086675   -0.00074743
