     6
  Step:   300            Position(A)                                  Velocity(au)
C        -0.02560767     0.00266539     0.02127470     0.00011035     0.00009218    -0.00005329
N        -0.04584575    -0.05369644     1.29357037    -0.00002223    -0.00023380     0.00003378
H         0.89342527    -0.13536960    -0.55260366     0.00005413     0.00103223    -0.00084942
H         0.77768381     0.11422643     1.87420967    -0.00040364    -0.00009390     0.00033397
H        -0.94741489    -0.10368770     1.79092573    -0.00013225     0.00249319     0.00045991
H        -0.99441929     0.16949572    -0.44990065    -0.00052415    -0.00128091     0.00022115
