6

C       -0.01950613     0.01582012     0.02445295
N       -0.04646716    -0.04590966     1.29201971
H        0.21950138     0.93078869    -0.52076222
H       -0.18100335    -0.96712891     1.73261352
H       -0.17917695     0.74804203     1.91685041
H       -0.19410227    -0.93202530    -0.48238670
