6

C   -0.03977846    0.00634108    0.03657872   -0.00007314    0.00010977    0.00026716
N   -0.03856327   -0.03078272    1.28519501   -0.00016239    0.00003445   -0.00021594
H    0.87754346   -0.02422855   -0.48502532    0.00056849   -0.00030604   -0.00067234
H    0.83182551   -0.23984127    1.81073237    0.00078000   -0.00081854    0.00139921
H   -0.94890280   -0.14007152    1.84392301    0.00175279    0.00011933   -0.00124871
H   -0.96351282    0.08656925   -0.57298484    0.00002689   -0.00078148    0.00033915
