6

C       -0.04124189     0.00841301     0.01319491
N       -0.04001139    -0.05080856     1.30087999
H        0.02665169     0.98590808    -0.46605379
H       -0.26109134    -0.90466939     1.81867333
H        0.18301805     0.76333766     1.87989752
H       -0.11407323    -0.90852564    -0.57519612
