     6
  Step:   300            Position(A)                                  Velocity(au)
C        -0.04240399     0.01312807     0.01413177    -0.00000818     0.00001648     0.00013371
N        -0.04041330    -0.05885374     1.30027058     0.00000374    -0.00003734    -0.00009585
H         0.89321629    -0.01346879    -0.53777543    -0.00025595     0.00083184    -0.00015843
H         0.81941131    -0.03531483     1.85401513    -0.00012466    -0.00073736     0.00006218
H        -0.88475241    -0.06596114     1.87735667     0.00013914     0.00109520     0.00025795
H        -0.97393933     0.10637847    -0.53897783     0.00028702    -0.00086718    -0.00042292
