14

C       -5.93215475    -0.70284171     0.02067350
C       -4.62580660    -0.82241813     0.07582896
H       -6.64718098     0.02488907    -0.24454067
H       -6.53635603    -1.67986068     0.19284226
H       -4.16511879    -1.76379487     0.15994899
C       -3.83973130     0.58494547    -0.09451728
C       -2.64753935     0.41419451     0.17820464
H       -4.28713271     1.36131567    -0.62908965
H       -2.04935682    -0.31946392     0.47912688
C       -1.89524294     1.71685094    -0.01680087
H       -2.36878177     2.49889658    -0.58257275
N       -0.57829741     1.79751855     0.23457832
H        0.09621800     2.43192245    -0.17192907
H       -0.28359775     0.91932722     0.60379791
