    14
  Step:   600            Position(A)                                  Velocity(au)
C        -5.30357861     0.01906306     0.70587298    -0.00034096    -0.00046282    -0.00006743
C        -4.31294581    -0.50799092     0.02665006     0.00023198     0.00090498     0.00023255
H        -5.88855791     0.85923614     0.41553691    -0.00172461    -0.00040917    -0.00049854
H        -5.70725030    -0.46472744     1.53509842     0.00026141     0.00014288     0.00030138
H        -3.82036680    -1.45941249     0.34394979     0.00124966     0.00082328    -0.00040957
C        -3.83743317     0.31507250    -1.14304754     0.00033002    -0.00065678     0.00035881
C        -2.78921337     1.08587558    -0.70802451     0.00024132     0.00039946    -0.00010228
H        -4.35525388     0.47450284    -2.05809916    -0.00162575     0.00295785    -0.00033784
H        -2.61534114     1.94727195    -1.37425317     0.00032392     0.00019030    -0.00215640
C        -2.28236873     1.11335411     0.67809388     0.00049685    -0.00038049    -0.00020235
H        -2.90296012     1.09608876     1.50063080    -0.00238614     0.00142906     0.00292941
N        -0.94663993     0.99513016     0.61681905    -0.00042785    -0.00052855    -0.00018776
H        -0.37429856     0.81993348     1.40749730    -0.00131312     0.00103198     0.00132355
H        -0.40283614     1.40624846    -0.07967246    -0.00026981     0.00351036    -0.00115597
