12

C       -0.04280124    -0.02888498    -0.00702263
N       -0.04198250    -0.07362714     1.34046826
H        0.86458353     0.10823959    -0.68821813
H        0.84876880     0.18766018     1.84866282
H       -0.95332366    -0.03344129     1.82066620
H       -0.87954430     0.43511008    -0.63299961
C       -0.04324721    -0.02973651    -0.00922899
N       -0.04171263    -0.07319122     1.34216943
H        0.87001817     0.10649477    -0.68757953
H        0.84911520     0.19090852     1.84931067
H       -0.95520446    -0.03916963     1.82087564
H       -0.88188067     0.44342411    -0.63184454
