14

C       -5.68631148    -0.91647761    -0.43352373
C       -4.47543140    -0.27198702    -0.36005293
H       -6.30965132    -0.99390018     0.43960956
H       -5.90757857    -0.96357706    -1.45958605
H       -4.00564332     0.00170904    -1.28602964
C       -3.90518041     0.38485468     0.75336501
C       -2.84557029     1.13648101     0.88670665
H       -4.45062389    -0.00100319     1.65083942
H       -2.56356699     1.61975454     1.82515999
C       -1.88762716     1.07473902    -0.13109150
H       -2.14432606     0.71964227    -1.17762623
N       -0.71808599     1.59460686    -0.22173605
H       -0.22406040     1.29599771    -1.08968604
H       -0.36600258     2.03037785     0.66795202
