6

C       -0.03195676     0.02574020     0.01982831
N       -0.04566853    -0.06370305     1.29668958
H        0.91782795     0.18984627    -0.47586817
H        0.78419911    -0.32666770     1.83848280
H       -0.92148831     0.13870623     1.78010991
H       -0.97805855    -0.09312827    -0.50620517
