     6
  Step:   600            Position(A)                                  Velocity(au)
C        -0.24829842    -0.10565583     0.01770618     0.00000340    -0.00035662     0.00070532
N         0.16945261     0.08794607     1.49337796    -0.00008541     0.00018168     0.00013607
H         0.27318087     0.78840238    -0.63068186     0.00005444     0.00149338     0.00119065
H        -1.40010545     0.24601258    -0.05050174     0.00328097    -0.00119929    -0.00478305
H         1.02238990    -0.48781001     1.08948078     0.00154586     0.00101183    -0.00467009
H        -0.50500742    -1.17970456    -0.47961134    -0.00373499     0.00041879    -0.00203311
