6

C       -0.03621851    -0.02496703    -0.20502271
N       -0.04610889    -0.14270654     1.50195122
H        0.95020934     0.19105794    -0.67507588
H        0.71785773     0.54212592     1.74129473
H       -0.91799008     0.26534350     1.90733127
H       -0.89069327     0.61230953    -0.51008315
