14

C       -4.67427697     0.12546287    -1.43552846
C       -4.84025087    -0.10387449    -0.12177993
H       -4.01906417     0.84146251    -1.86095510
H       -5.22515996    -0.55664955    -2.11774226
H       -5.48945221    -0.97017776     0.42752315
C       -4.11949178     0.69768492     1.02525850
C       -2.81892185     1.05490834     1.32644003
H       -4.67585817     0.43510328     1.85116705
H       -2.59807354     1.62555966     2.20918359
C       -1.55976455     1.01075177     0.50699002
H       -0.67352655     1.61183336     0.94113964
N       -1.42430399     0.43763456    -0.67375852
H       -0.63453710     0.55614989    -1.36191063
H       -2.22453769    -0.16856366    -1.21924697
