12

C       -0.02325185     0.08282597     0.00690032
N       -0.05163647    -0.03852748     1.32687748
H        0.71549034    -0.60046775    -0.58393958
H        0.85585802    -0.01813940     1.86329363
H       -0.85982246    -0.50522367     1.77884959
H       -0.92983981     0.00246638    -0.68714302
C       -0.02225292     0.08351572     0.00509727
N       -0.05204774    -0.03932110     1.32804379
H        0.71395234    -0.60841004    -0.58254771
H        0.85510360    -0.00837338     1.86278625
H       -0.85918481    -0.50990209     1.78030028
H       -0.93437336     0.00813048    -0.68420034
