6

C       -0.02225292     0.08351572     0.00509727
N       -0.05204774    -0.03932110     1.32804379
H        0.71395234    -0.60841004    -0.58254771
H        0.85510360    -0.00837338     1.86278625
H       -0.85918481    -0.50990209     1.78030028
H       -0.93437336     0.00813048    -0.68420034
