12

C       -0.02592571    -0.08836030    -0.03503269
N       -0.03967879    -0.00806205     1.34955823
H        0.77448709     0.57907081    -0.53254959
H        0.77159522    -0.45677260     1.84812004
H       -0.93801886     0.09619842     1.85420473
H       -0.96068270     0.27665594    -0.61422210
C       -0.02538961    -0.08919874    -0.03507416
N       -0.03955128    -0.00753885     1.34888041
H        0.76976567     0.58537693    -0.52759554
H        0.76731628    -0.46249618     1.84952835
H       -0.93572574     0.09954361     1.85507660
H       -0.96213567     0.27544854    -0.61154295
