6

C       -0.02538961    -0.08919874    -0.03507416
N       -0.03955128    -0.00753885     1.34888041
H        0.76976567     0.58537693    -0.52759554
H        0.76731628    -0.46249618     1.84952835
H       -0.93572574     0.09954361     1.85507660
H       -0.96213567     0.27544854    -0.61154295
