14

C   -6.01656552   -0.85478705   -0.07046739   -0.00034451   -0.00000809    0.00001759
C   -4.67485360   -0.69274356    0.08893729    0.00029030    0.00000480    0.00019472
H   -6.70518996   -0.13459553   -0.38351550   -0.00002144    0.00022341   -0.00048994
H   -6.38159111   -1.86509603    0.15144746    0.00092878   -0.00122190   -0.00077002
H   -4.03647998   -1.56493592    0.25000786   -0.00074629   -0.00026056   -0.00031424
C   -3.98328972    0.52975417   -0.06471229    0.00008102    0.00000487   -0.00004048
C   -2.61722970    0.56599892    0.16895207   -0.00040886   -0.00009615    0.00001275
H   -4.50510939    1.44766262   -0.42321477   -0.00034422    0.00080326   -0.00001325
H   -2.11803717   -0.37898350    0.52597375    0.00093694   -0.00010894   -0.00022305
C   -1.78209744    1.68860021   -0.03107862    0.00042122    0.00013583   -0.00001134
H   -2.31893336    2.57259620   -0.39083053    0.00032974   -0.00005891    0.00010091
N   -0.48101231    1.75372864    0.27012326   -0.00023125    0.00003709   -0.00001533
H    0.03509751    2.57061529    0.00126771    0.00084089   -0.00104946   -0.00009081
H    0.02849311    0.88513826    0.43702830    0.00082233    0.00066589   -0.00005076
