     6
  Step:   300            Position(A)                                  Velocity(au)
C        -0.06130373     0.02073686     0.01406357     0.00003208     0.00006030     0.00001291
N        -0.02070112    -0.05397893     1.30311693    -0.00014136     0.00001226    -0.00001912
H         0.17301756    -0.89299691    -0.52769199     0.00010221    -0.00030167     0.00064268
H         0.08783189     0.76723350     1.90468170     0.00086357    -0.00025210     0.00008182
H        -0.10409679    -0.99133736     1.70612610     0.00068631    -0.00020619    -0.00035804
H        -0.35152382     0.95034428    -0.46722202    -0.00006990    -0.00012898    -0.00025457
