14

C       -5.39187536    -0.38782135     0.61174108
C       -4.13234255    -0.60453692     0.14457173
H       -6.08271476     0.48055585     0.25185158
H       -5.96016490    -0.92543941     1.44440827
H       -3.32914704    -1.34541240     0.30125011
C       -3.87610028     0.42114335    -0.91301870
C       -2.92382164     1.47085370    -0.69890411
H       -4.17343609     0.16608781    -1.91252331
H       -2.33513098     1.80604155    -1.54994403
C       -2.23503302     1.25693468     0.57535735
H       -2.81427226     0.69959617     1.43138584
N       -0.95185758     1.03437718     0.52577469
H       -0.52983360     0.67228571     1.36764288
H       -0.36934264     1.01488545    -0.28656938
