12

C       -0.03195420     0.06134245    -0.04597597
N       -0.03476444    -0.00066081     1.37122616
H        0.85795296     0.13089158    -0.71777155
H        0.50668355    -0.87584596     1.64182729
H       -0.91834511     0.00487278     1.93327416
H       -0.79536721    -0.65147394    -0.47247036
C       -0.03245626     0.06096412    -0.04280383
N       -0.03439286    -0.00093787     1.36834687
H        0.85616914     0.13962440    -0.71478461
H        0.50100962    -0.88043891     1.64098959
H       -0.91541033     0.01453356     1.93165664
H       -0.79002528    -0.65691622    -0.47078988
