6

C       -0.03245626     0.06096412    -0.04280383
N       -0.03439286    -0.00093787     1.36834687
H        0.85616914     0.13962440    -0.71478461
H        0.50100962    -0.88043891     1.64098959
H       -0.91541033     0.01453356     1.93165664
H       -0.79002528    -0.65691622    -0.47078988
