14

C   -5.99855229   -0.61080931   -0.12968556   -0.00000994    0.00037266   -0.00014415
C   -4.74158502   -0.80964443    0.15421379    0.00008526   -0.00018363   -0.00005488
H   -6.50493373    0.29778180   -0.47694174    0.00031778    0.00061814   -0.00013305
H   -6.72675237   -1.45388684    0.18295390    0.00016398    0.00053079    0.00007476
H   -4.38687679   -1.76981892    0.49792261   -0.00044062   -0.00002060    0.00024058
C   -3.85103648    0.31881831   -0.06764139    0.00046973   -0.00028270    0.00023674
C   -2.50026245    0.44865068    0.21299538   -0.00002168   -0.00004755    0.00018607
H   -4.24992601    1.18015302   -0.56027543   -0.00026863    0.00059233   -0.00032081
H   -2.02555234   -0.35978958    0.78193520    0.00047690   -0.00011875   -0.00024805
C   -1.85772277    1.64244007   -0.02934203   -0.00015408    0.00001575    0.00001067
H   -2.35105159    2.48170095   -0.48930091   -0.00089435   -0.00041736   -0.00063878
N   -0.56332842    1.90961731    0.21502196   -0.00006681    0.00008533   -0.00004111
H   -0.16810565    2.82594641   -0.09155439   -0.00149466   -0.00041622    0.00000512
H    0.06730108    1.11167373    0.50632925   -0.00133246   -0.00045906   -0.00120221
