     6
  Step:   120            Position(A)                                  Velocity(au)
C        -0.03945047     0.04064260    -0.14034233    -0.00003614     0.00001755     0.00055380
N        -0.03120531    -0.01945596     1.44592067     0.00010634     0.00001732    -0.00045370
H         0.89066483     0.31147105    -0.66602751    -0.00038599     0.00136679     0.00014939
H         0.57273657    -0.82753364     1.79469934    -0.00189806    -0.00123990    -0.00096411
H        -0.89476388     0.14209619     1.99796098     0.00031065     0.00127253    -0.00005014
H        -0.87785460    -0.50976194    -0.65530755     0.00092631    -0.00184920     0.00057048
