14

C       -6.04023527    -0.84651275    -0.04853028
C       -4.74374362    -0.74046152     0.19692240
H       -6.57668678     0.04803126    -0.44020273
H       -6.65764655    -1.71339884     0.15170160
H       -4.03603971    -1.52490346     0.62932307
C       -3.95790987     0.38171192    -0.25907583
C       -2.57489943     0.59799452     0.04979638
H       -4.39403653     0.77041610    -1.16795944
H       -1.91091590    -0.20211157     0.17735373
C       -1.81767370     1.82630082     0.31557407
H       -2.55132192     2.55523399     0.77328155
N       -0.42570228     1.77091603     0.16837201
H        0.30497791     2.48140109     0.10657634
H       -0.22860905     1.09085454    -0.59074720
