     6
  Step:   300            Position(A)                                  Velocity(au)
C        -0.01794941     0.01244024     0.01570137    -0.00005875    -0.00010270     0.00008182
N        -0.07263566    -0.05136212     1.30212418     0.00019556     0.00000617    -0.00011194
H         0.23165543    -0.89562362    -0.52872567    -0.00035645    -0.00012604    -0.00040676
H         0.12439026     0.79545600     1.84286932    -0.00153441     0.00040641     0.00004497
H        -0.08177968    -0.97026322     1.74821039    -0.00052816     0.00028346     0.00013368
H        -0.26393639     0.96614576    -0.45217705     0.00040143     0.00057423     0.00080879
