6

C       -0.02151480     0.02831185     0.02756339
N       -0.04013234    -0.05701205     1.29141736
H        0.23885582     0.93147990    -0.53069339
H       -0.16923507    -0.97644426     1.72981405
H       -0.21663485     0.72773788     1.91809146
H       -0.25186523    -0.89764626    -0.49961654
