6

C       -0.09022397    -0.00389401    -0.02631653
N       -0.04224793    -0.06832529     1.28818670
H       -0.14993060     0.80980891    -0.63698958
H       -0.43169501     0.90836705     2.18548071
H        0.34568863    -0.64598082     2.09991567
H        0.68548601    -0.74610358    -0.34386478
