14

C       -5.45204532    -0.20874628     0.77795896
C       -4.65131280    -0.65032532    -0.27099289
H       -5.55875625     0.87171892     0.92727312
H       -5.98694457    -0.85059113     1.48491057
H       -4.42943389    -1.65511235    -0.72851884
C       -3.98742251     0.43814328    -1.04162871
C       -2.93086784     0.99430462    -0.40187727
H       -4.26460312     0.84054938    -2.00173843
H       -2.47767548     2.00999508    -0.80229312
C       -1.93303496     1.13426695     0.70328630
H       -2.32393045     1.39743190     1.84515046
N       -0.63604584     1.23812740     0.46341652
H        0.09796534     1.42597655     1.13275303
H       -0.32539695     1.04621440    -0.50443221
