     6
  Step:   120            Position(A)                                  Velocity(au)
C        -0.03494695    -0.01895893    -0.16210628    -0.00001464    -0.00000076     0.00037848
N        -0.04057538    -0.12952041     1.46367203     0.00003617    -0.00004801    -0.00026410
H         0.91389234    -0.00432640    -0.73333892    -0.00014250    -0.00127565    -0.00003725
H         0.65858006     0.60125263     1.76512912    -0.00105781     0.00164050    -0.00105550
H        -0.94674225     0.08651551     1.95119992     0.00021180    -0.00102461    -0.00045205
H        -0.85837678     0.67256136    -0.49896103     0.00066033     0.00133598     0.00070484
