6

C   -0.04841149    0.00720403    0.03919076    0.00002619    0.00002893    0.00005271
N   -0.03676061   -0.06775401    1.27854747   -0.00015998   -0.00003482   -0.00004959
H    0.93318545    0.04539544   -0.48459304    0.00046547   -0.00028809   -0.00025759
H    0.77485657   -0.02540384    1.82818990    0.00059528    0.00046589    0.00102519
H   -0.90354579    0.03384482    1.87495442    0.00149333   -0.00018048   -0.00049209
H   -0.92972150    0.13207637   -0.56065448   -0.00064301    0.00014187   -0.00021445
