     6
  Step:   120            Position(A)                                  Velocity(au)
C        -0.03658044     0.06394713    -0.19165331    -0.00000470    -0.00000151     0.00023557
N        -0.03434479    -0.01245935     1.49287831     0.00000180     0.00019368    -0.00010354
H         0.93645734     0.02796603    -0.71159935    -0.00003400     0.00086801     0.00013410
H         0.69515464    -0.71200549     1.82154588    -0.00114775    -0.00217708    -0.00119758
H        -0.96512948    -0.18221865     1.92538504     0.00090328     0.00030200    -0.00069252
H        -0.96624579    -0.39237950    -0.60507171     0.00030947    -0.00166637     0.00038777
