6

C       -0.00338203    -0.25787677     0.11434263
N       -0.03633600     0.38728384     1.23017886
H       -0.41241741    -1.80010091     0.83709216
H        0.02429683     0.11479460     2.18254916
H       -0.83625797    -0.07901250    -0.36908548
H        0.55667699    -1.21448504    -0.21595253
