     6
  Step:   300            Position(A)                                  Velocity(au)
C        -0.00748235     0.01237712     0.02116346    -0.00008664     0.00012577     0.00015115
N        -0.07968001    -0.04983633     1.29813652     0.00029895    -0.00001103    -0.00017968
H         0.28576043     0.94268375    -0.46955444    -0.00053127     0.00002787    -0.00070135
H         0.05123345    -0.97079613     1.73322781    -0.00224894    -0.00030790     0.00015268
H        -0.08648588     0.80426529     1.85863825    -0.00091471    -0.00044553     0.00033148
H        -0.26702735    -0.90088037    -0.52180321     0.00057302    -0.00061977     0.00091299
