14

C       -6.02086354    -0.78155310    -0.46108114
C       -4.77874417    -0.61517845     0.22482326
H       -6.92498737    -0.21999428    -0.45156918
H       -6.04390607    -1.67614346    -1.11420668
H       -4.09028094    -1.47020921     0.03565907
C       -3.87848290     0.50894335     0.59478241
C       -2.54838430     0.35569956     0.35237193
H       -4.36647224     1.53554938     0.90142005
H       -2.08214494    -0.61799755     0.17876080
C       -1.79905386     1.53140715    -0.17450145
H       -2.38290758     2.13675784    -0.84706497
N       -0.51152738     1.90199680    -0.02488134
H       -0.17717107     2.66598340    -0.61581899
H       -0.08845400     1.94881723     0.88019518
