6

C       -0.01651009    -0.05996117     0.08224205
N       -0.06398139     0.10448934     1.22839708
H       -0.63460226    -0.73945583    -0.45049884
H       -1.00795069    -0.69374847     1.53335530
H        0.66966706     0.14055400     2.18062723
H        0.84560619    -0.11527751    -0.42172382
