     6
  Step:   300            Position(A)                                  Velocity(au)
C        -0.04739687     0.00977088     0.02533480    -0.00002942    -0.00003450     0.00016554
N        -0.02460344    -0.05311887     1.29421152     0.00006509     0.00001144    -0.00008296
H         0.03814798    -0.86461282    -0.62749388     0.00150138     0.00014923    -0.00030199
H        -0.14041577     0.77299497     1.89355208     0.00132797     0.00010018    -0.00008712
H        -0.08190970    -0.92085255     1.84167566    -0.00190162     0.00002567    -0.00026061
H        -0.12207095     0.96442746    -0.50240342    -0.00148171    -0.00002296    -0.00016997
