    14
  Step:   600            Position(A)                                  Velocity(au)
C        -4.99830013    -0.14222117    -0.83242197    -0.00021134    -0.00030188    -0.00017078
C        -4.33851339    -0.57400335     0.22706904    -0.00003182     0.00009326    -0.00019260
H        -5.41969446     0.83326575    -0.79809568    -0.00133353     0.00014695     0.00033189
H        -5.17360402    -0.74852678    -1.71388224     0.00137503    -0.00022654    -0.00125285
H        -3.90669890    -1.54191637     0.54612107    -0.00014808     0.00055587     0.00025740
C        -4.21009989     0.57553082     1.16561445     0.00062999     0.00017080     0.00002575
C        -3.10339161     1.14705941     0.68986277     0.00035183     0.00000135     0.00034319
H        -5.13637214     1.02634352     1.64306578    -0.00216944     0.00044026    -0.00210356
H        -2.85043003     2.27854239     0.60665873     0.00085596    -0.00194035     0.00035035
C        -2.07023713     0.89346485    -0.46463173    -0.00000943     0.00025430     0.00054710
H        -2.39495722     1.05760330    -1.58465614     0.00065340     0.00071801    -0.00106935
N        -0.80620032     1.04073120    -0.19858283    -0.00050191    -0.00027541    -0.00006322
H        -0.17155054     1.19860112    -1.02348606    -0.00089728    -0.00089472    -0.00066634
H        -0.64177715     1.43595756     0.73839000    -0.00005086     0.00243218    -0.00155434
