     6
  Step:   300            Position(A)                                  Velocity(au)
C        -0.04241460     0.00553478     0.02605853     0.00002261    -0.00004049     0.00011958
N        -0.04955267    -0.05116456     1.28863578    -0.00010605     0.00005333    -0.00011735
H         0.13299715     0.98618939    -0.42036303    -0.00202872     0.00008791    -0.00034622
H        -0.07821231    -0.92010212     1.83283509    -0.00146961     0.00040193     0.00068236
H         0.16333208     0.77518906     1.86957824     0.00270833    -0.00087918     0.00041700
H        -0.23702688    -0.86599943    -0.60784936     0.00199420     0.00013076    -0.00054736
