6

C   -0.04324328   -0.00231541    0.04301527   -0.00010952   -0.00010086    0.00005850
N   -0.04343895   -0.03667078    1.27852791   -0.00000508    0.00006030    0.00002720
H    0.93266703    0.05376950   -0.53680275    0.00041117    0.00022303   -0.00009272
H    0.84379392   -0.20253891    1.90135505   -0.00006215    0.00003507   -0.00080593
H   -0.88339514   -0.08686954    1.78386942    0.00015708   -0.00031321   -0.00031054
H   -0.98707104    0.10304111   -0.53582627    0.00086961    0.00041908    0.00013409
