     6
  Step:   120            Position(A)                                  Velocity(au)
C        -0.02292496     0.07119498    -0.01586817     0.00008091     0.00004232    -0.00011026
N        -0.03234681    -0.10316559     1.34226588     0.00003015     0.00006260    -0.00001113
H         0.69728423    -0.57237894    -0.64565387    -0.00098779    -0.00149071     0.00063691
H         0.69788050     0.44444259     1.88648907    -0.00094275     0.00076545     0.00032254
H        -0.94060104    -0.28540709     1.82529163     0.00047338    -0.00166353    -0.00002295
H        -0.94483110     0.32882432    -0.63758261     0.00007401     0.00101471     0.00053198
