6

C       -0.01792310     0.00670603    -0.05742834
N       -0.17070360    -0.03896149     1.36913123
H        0.52285971     0.92908620    -0.38806859
H        0.57542485    -0.76130489     1.63734140
H        0.07472872     0.65655530     1.79247810
H        0.19968740    -1.03296890    -0.49111391
