6

C       -0.03773034     0.04475012    -0.04107652
N       -0.04682865    -0.10474663     1.35588595
H        0.91292461    -0.10451949    -0.68989899
H        0.81099828     0.15625060     1.97370376
H       -0.86925291     0.08355746     1.89489561
H       -0.96725742     0.11727637    -0.63903846
