     6
  Step:   600            Position(A)                                  Velocity(au)
C        -0.21317212     0.12164230     0.05379472    -0.00018524     0.00039841    -0.00048316
N         0.11076085    -0.19887086     1.27086502     0.00039127     0.00026593     0.00054679
H         0.72624263     1.30252268    -0.29612865    -0.00301905     0.00180943    -0.00266190
H        -0.41373372    -0.85072220     1.69805717    -0.00589799    -0.00232975     0.00190547
H         0.90835136     0.54362668     1.47503564     0.00259954    -0.00553683    -0.00011962
H        -1.43294085    -0.35105243    -0.28629510     0.00308752    -0.00238575    -0.00096502
