     6
  Step:   120            Position(A)                                  Velocity(au)
C        -0.03284884     0.07075598    -0.15998269    -0.00001312    -0.00003772     0.00037630
N        -0.03111306     0.00521516     1.47504509     0.00006659    -0.00002804    -0.00033118
H         0.92546194     0.01096477    -0.72917507    -0.00005803     0.00155885     0.00004257
H         0.53795681    -0.85609228     1.61179906    -0.00130128    -0.00085268    -0.00081199
H        -0.98425180    -0.15656463     1.91411922    -0.00010569     0.00153508     0.00034943
H        -0.86830021    -0.58368938    -0.49609464     0.00069605    -0.00140213     0.00053825
