12

C       -0.04015442    -0.01600046    -0.21036548
N       -0.05228904    -0.14303227     1.50578127
H        0.92025502     0.40779017    -0.56700663
H        0.83144003     0.27490143     1.90028877
H       -0.77043324     0.54463859     1.79815649
H       -0.98908300     0.28116784    -0.65753015
C       -0.04007735    -0.01596439    -0.21002459
N       -0.05254413    -0.14363150     1.50583791
H        0.92067858     0.41237545    -0.56359034
H        0.83264299     0.27476545     1.89866888
H       -0.76601705     0.55070317     1.79146292
H       -0.99249925     0.27855124    -0.65748223
