6

C       -0.03890481     0.01771078     0.02276355
N       -0.04278234    -0.05671314     1.29507675
H        0.08311642    -0.87237181    -0.59227546
H       -0.05247618     0.76113477     1.91559853
H       -0.02479445    -0.94253871     1.80498061
H       -0.16067308     0.96105676    -0.50436001
