6

C       -0.03673914     0.01414397     0.03004208
N       -0.04220873    -0.05407812     1.28543744
H        0.05108539     0.96484604    -0.49011426
H       -0.29894490    -0.89798629     1.81522243
H        0.16888151     0.73086633     1.92118973
H       -0.10964153    -0.88455734    -0.57511931
