6

C       -0.04308698     0.02036431     0.01217199
N       -0.04303543    -0.05758465     1.30212201
H        0.91921905    -0.19319813    -0.45717644
H        0.86322307     0.00455900     1.77018681
H       -0.91065463    -0.20691451     1.82985601
H       -0.97323134     0.28332595    -0.49058088
