14

C       -4.72196754    -0.43167992    -0.94558843
C       -4.41329273    -0.42776757     0.38829627
H       -4.97506868     0.45644185    -1.61333248
H       -4.81836471    -1.39784100    -1.49150104
H       -4.24623697    -1.37368124     0.85283591
C       -4.32277025     1.00847420     0.89231421
C       -3.20497708     1.50235975     0.39539851
H       -5.14887131     1.41418229     1.46296076
H       -2.98430014     2.54313395     0.19643407
C       -2.07676938     0.74339803    -0.31068847
H       -2.11340432     0.61995861    -1.46058499
N       -0.83966499     0.73456958     0.12053173
H       -0.13683148     0.30140089    -0.53480416
H       -0.57847691     1.33242603     0.92496108
