     6
  Step:   120            Position(A)                                  Velocity(au)
C        -0.01917988    -0.06832715    -0.02550361     0.00008680    -0.00004431     0.00005489
N        -0.03158894    -0.00737693     1.34318081     0.00000198    -0.00000491    -0.00015453
H         0.69229710     0.67127114    -0.52177595    -0.00098477     0.00132207     0.00075622
H         0.66209751    -0.60938513     1.83629566    -0.00100778    -0.00098304     0.00038748
H        -0.92113572     0.21745558     1.86401420     0.00096414     0.00118199    -0.00000856
H        -0.97870312    -0.03241758    -0.64789484    -0.00003342    -0.00092473     0.00035819
