    14
  Step:   600            Position(A)                                  Velocity(au)
C        -5.42724583    -0.08296416    -0.78625746    -0.00043140     0.00036328    -0.00005207
C        -4.24606504    -0.50558316    -0.31294618     0.00014784    -0.00009794    -0.00023378
H        -5.95689594     0.64035608    -0.17007359     0.00133788     0.00170012    -0.00034510
H        -5.63488845    -0.58274966    -1.71818969    -0.00122427     0.00066726    -0.00022551
H        -3.79451063    -1.31611667    -0.91492090    -0.00136095    -0.00022019     0.00082887
C        -3.76956381    -0.00584638     1.04293376     0.00046046    -0.00070332     0.00005897
C        -2.78669421     0.94509045     1.24161023    -0.00023991     0.00012238     0.00004773
H        -4.53830587    -0.02618057     1.76534190     0.00094328    -0.00176359     0.00261265
H        -2.60774546     1.33471073     2.30338250    -0.00155587    -0.00202253     0.00163530
C        -1.65723540     1.10535577     0.33386750    -0.00005512     0.00098254    -0.00030241
H        -0.67676767     0.56553872     0.73199991    -0.00031159     0.00258430     0.00280188
N        -1.48312313     1.54980399    -0.88773661     0.00023920    -0.00040726    -0.00004890
H        -0.90753084     0.88573248    -1.43115455     0.00040457    -0.00077543     0.00092707
H        -2.10726298     2.25284107    -1.31933965    -0.00014956    -0.00245764    -0.00181725
