6

C       -0.04117685     0.09338259    -0.00116762
N       -0.03908024    -0.04142101     1.33549394
H        0.85111509    -0.24146114    -0.65962972
H        0.80067770    -0.43756801     1.80119759
H       -0.95567726    -0.06625350     1.81518205
H       -0.87533637    -0.46165287    -0.60930853
