6

C       -0.05270564     0.02356940     0.03084371
N       -0.04842970    -0.05382412     1.28521857
H        0.00874164    -0.91980837    -0.50783873
H        0.05782379     0.71358421     1.95217677
H        0.20518934    -0.94754981     1.74851028
H       -0.18364765     0.95110771    -0.52819515
