     6
  Step:   120            Position(A)                                  Velocity(au)
C        -0.03539178     0.01733374    -0.22905071     0.00000206    -0.00033428    -0.00004452
N        -0.04260043    -0.12047088     1.51554109     0.00005831    -0.00013374     0.00008045
H         0.94615196     0.14649733    -0.69996902    -0.00010323     0.00125630     0.00040694
H         0.85946651     0.24398062     1.99320552    -0.00079512     0.00157713    -0.00058168
H        -0.96117628     0.10157445     1.90038741     0.00022136     0.00052543    -0.00068495
H        -1.04366856     0.30573350    -0.63269511    -0.00015786     0.00248296     0.00027228
