     6
  Step:   300            Position(A)                                  Velocity(au)
C        -0.03417104    -0.00217033     0.01555165     0.00006439     0.00001548    -0.00009409
N        -0.04286666    -0.04171771     1.29980710     0.00000060    -0.00004473     0.00004670
H         0.90253781    -0.18607369    -0.50315679     0.00010762     0.00004706    -0.00004802
H         0.80379713     0.10059610     1.86170340    -0.00000249     0.00015253    -0.00004802
H        -0.93949354    -0.21981667     1.75528609    -0.00045611     0.00040839    -0.00029510
H        -0.97690562     0.24107645    -0.46968779    -0.00042453    -0.00017080     0.00086341
