12

C       -0.03303413     0.06424158    -0.22813091
N       -0.04200725     0.00288926     1.53041872
H        0.91007501    -0.31360454    -0.67209308
H        0.79113507    -0.51937506     1.86176099
H       -0.91733470    -0.50390476     1.83067807
H       -1.01941283    -0.13854593    -0.67712713
C       -0.03315081     0.06506759    -0.22819239
N       -0.04240653     0.00404682     1.53110992
H        0.91164280    -0.32136771    -0.67141446
H        0.79117743    -0.52678260     1.85815258
H       -0.91117232    -0.51026507     1.82337571
H       -1.02024637    -0.14294349    -0.67576765
