6

C       -0.03315081     0.06506759    -0.22819239
N       -0.04240653     0.00404682     1.53110992
H        0.91164280    -0.32136771    -0.67141446
H        0.79117743    -0.52678260     1.85815258
H       -0.91117232    -0.51026507     1.82337571
H       -1.02024637    -0.14294349    -0.67576765
