     6
  Step:   300            Position(A)                                  Velocity(au)
C        -0.07244902     0.00596796     0.01883453    -0.00002460     0.00000372    -0.00008182
N         0.01397458    -0.05520596     1.30176220     0.00004626    -0.00000156     0.00010341
H         0.03815811    -0.84861515    -0.65765509     0.00120008    -0.00009540     0.00037280
H        -0.13484042     0.78915109     1.86047418     0.00129356     0.00036231     0.00003135
H        -0.24124387    -0.90828893     1.81002404    -0.00150306    -0.00010618    -0.00096478
H        -0.20589972     0.99401976    -0.43498696    -0.00134025    -0.00018336     0.00009859
