12

C       -0.03305465     0.07449610    -0.10883757
N       -0.04185373     0.00658591     1.42126332
H        0.90779886    -0.35599176    -0.51999254
H        0.77450449    -0.53479803     1.72409996
H       -0.90869203    -0.49338138     1.74979881
H       -1.01105481    -0.26484375    -0.51532892
C       -0.03312422     0.07479660    -0.10873355
N       -0.04144470     0.00713996     1.42100823
H        0.90704103    -0.35825837    -0.51461846
H        0.77047665    -0.53671653     1.71916955
H       -0.90988886    -0.49824503     1.74645659
H       -1.00992731    -0.26707504    -0.51012511
