6

C       -0.03312422     0.07479660    -0.10873355
N       -0.04144470     0.00713996     1.42100823
H        0.90704103    -0.35825837    -0.51461846
H        0.77047665    -0.53671653     1.71916955
H       -0.90988886    -0.49824503     1.74645659
H       -1.00992731    -0.26707504    -0.51012511
