12

C       -0.03390811     0.04225516    -0.01113306
N       -0.03248911    -0.01151976     1.34154410
H        0.81530057     0.28905095    -0.69792644
H        0.54472466    -0.81837006     1.69259590
H       -0.89155511     0.07943618     1.95574354
H       -0.82587383    -0.56332498    -0.56828212
C       -0.03449332     0.04241171    -0.00867961
N       -0.03201321    -0.01201971     1.33922053
H        0.81311157     0.29617218    -0.69463896
H        0.53923982    -0.82301671     1.69269478
H       -0.88894162     0.08925217     1.95333808
H       -0.82045328    -0.57053353    -0.56620932
