6

C       -0.04671993     0.01114314     0.02764423
N       -0.03262666    -0.05184381     1.29220894
H        0.16976683    -0.86992042    -0.58670885
H        0.03689006     0.77551350     1.88917899
H       -0.14181418    -0.94748227     1.77827826
H       -0.26768779     0.95976040    -0.47510522
