6

C       -0.03175889     0.07068522    -0.20676901
N       -0.04123690     0.01781403     1.51996537
H        0.92713443    -0.21367432    -0.68305634
H        0.71227257    -0.71840298     1.69674228
H       -0.92508648    -0.44472241     1.79320229
H       -0.97576177    -0.38282272    -0.57297215
