12

C       -0.03740772    -0.03550324    -0.00561973
N       -0.03697218    -0.09945327     1.32636651
H        0.82800466    -0.07300834    -0.71320797
H        0.57550644     0.64788511     1.73963241
H       -0.90832032    -0.21017746     1.90598344
H       -0.74859698     0.77060409    -0.40504950
C       -0.03817417    -0.03543202    -0.00377605
N       -0.03635931    -0.09875436     1.32454962
H        0.82657084    -0.08144745    -0.71015842
H        0.57081275     0.65127488     1.74115252
H       -0.90685236    -0.22019237     1.90355448
H       -0.74332108     0.77510730    -0.40391140
