6

C       -0.03191141     0.05636424    -0.07190647
N       -0.05634860    -0.00182717     1.39386458
H        0.65016564    -0.71199815    -0.51882561
H        0.82273702    -0.01579925     1.95534448
H       -0.60158872    -0.88505141     1.63720888
H       -0.92094518     0.29682060    -0.69447512
