14

C       -5.56638076    -0.55613803     0.80750400
C       -4.69983080     0.18215642     0.03363665
H       -5.91391065    -1.53121675     0.59772461
H       -5.94234823    -0.09406057     1.72364674
H       -4.73491291     1.15994508     0.54549561
C       -3.62553428    -0.07834478    -1.05106974
C       -2.19964764     0.25449779    -0.83975584
H       -4.15482367    -0.37438255    -2.03785053
H       -1.45335902    -0.21715054    -1.49552217
C       -2.02547966     1.00122050     0.37445026
H       -2.80651620     0.93962436     1.08849503
N       -1.24433569     2.03869892     0.76083492
H       -1.45926062     2.51238791     1.60115564
H       -0.33464846     2.34229018     0.46418063
