6

C       -0.02281915     0.12997612    -0.01813973
N       -0.03660314    -0.11804428     1.34052166
H        0.74042002    -0.53737120    -0.57201182
H        0.78022603     0.27685045     1.85174126
H       -0.98356913    -0.07935691     1.81553127
H       -0.96945080    -0.23829610    -0.61540895
