6

C        0.18552853     0.20655822     0.06999505
N       -0.21461120    -0.23180773     1.38857326
H        1.03824153    -0.44213961    -0.30423920
H        0.77615256     1.31831095    -0.14770127
H       -1.27432797    -0.53415053     1.15018123
H       -0.98153829    -0.25195275     0.06350020
