12

C       -0.04635169    -0.02168935    -0.17973654
N       -0.04790994    -0.14039046     1.48378738
H        0.88122486     0.52732939    -0.44580778
H        0.86262377     0.16589918     1.89006105
H       -0.74183224     0.61822420     1.67275031
H       -0.99685045     0.22812395    -0.70242310
C       -0.04630827    -0.02170992    -0.17834480
N       -0.04771116    -0.14033566     1.48269777
H        0.87895748     0.53397652    -0.44031276
H        0.86117991     0.15750958     1.88951314
H       -0.73852828     0.62677122     1.66936271
H       -0.99972302     0.22080284    -0.70542516
