12

C       -0.03975154    -0.01622909    -0.12247119
N       -0.05769994    -0.12190748     1.42913648
H        0.79544996     0.64173743    -0.47520285
H        0.85527093    -0.13138392     1.95136912
H       -0.62610330     0.70287795     1.76262944
H       -0.96206349     0.00446036    -0.74716297
C       -0.03945234    -0.01650999    -0.11957385
N       -0.05793462    -0.12166796     1.42662072
H        0.78971839     0.64956925    -0.47042078
H        0.85252245    -0.13913763     1.94948363
H       -0.61894288     0.71021146     1.75941846
H       -0.96104809    -0.00293240    -0.74641361
