6

C       -0.03488852    -0.00668553    -0.09903183
N       -0.05132916    -0.08138456     1.40460080
H        0.77437681     0.62819080    -0.54748896
H        0.77815758    -0.45025111     1.93563614
H       -0.70761288     0.56394686     1.89287222
H       -0.92882684    -0.20104117    -0.72772477
