    14
  Step:   600            Position(A)                                  Velocity(au)
C        -6.07272251    -0.78370102    -0.17928071    -0.00115294     0.00011028     0.00006146
C        -4.76989023    -0.66709231     0.13218252     0.00007231     0.00002120    -0.00021913
H        -6.84880001    -0.10101653    -0.55352734    -0.00250675    -0.00360504     0.00068084
H        -6.33790505    -1.86929225    -0.03311330     0.00142523    -0.00146109    -0.00153978
H        -4.38451753    -1.67702289     0.49022451     0.00186461    -0.00033425    -0.00158712
C        -3.81517114     0.41379770    -0.08985202     0.00020082     0.00053949     0.00038564
C        -2.49153632     0.37320841     0.30983868    -0.00012271    -0.00016195     0.00026318
H        -4.13075332     1.43264267    -0.44615747    -0.00365239    -0.00046033    -0.00038023
H        -1.98395239    -0.39326179     0.93813959    -0.00028661    -0.00149846    -0.00056580
C        -1.77909936     1.62435677     0.05496278     0.00026871    -0.00080557    -0.00056604
H        -2.43527949     2.56670754    -0.18402689     0.00097999    -0.00147134    -0.00013648
N        -0.56836427     1.93521749     0.10463664     0.00078636     0.00067886     0.00058147
H        -0.49829311     2.92669200     0.00764618    -0.00139266     0.00041358    -0.00459241
H         0.09625618     1.41632761     0.62560485     0.00138504     0.00251693     0.00093291
