     6
  Step:   300            Position(A)                                  Velocity(au)
C        -0.04559095     0.01463552     0.02049118    -0.00003180    -0.00002877     0.00018774
N        -0.02915446    -0.05644362     1.29621151     0.00007136     0.00000668    -0.00011030
H         0.01143583    -0.86219498    -0.61647801     0.00124877     0.00027347    -0.00047739
H        -0.18789298     0.75896199     1.89877117     0.00100837     0.00013602     0.00008716
H         0.00376024    -0.92671659     1.84117109    -0.00166219    -0.00001972     0.00003014
H        -0.09181975     0.97014263    -0.48820992    -0.00120765    -0.00013986    -0.00034419
