12

C       -0.03818549    -0.02814640    -0.01036037
N       -0.05487801    -0.09770884     1.33195476
H        0.71860823     0.71141926    -0.44844809
H        0.78456109    -0.30216563     1.91337277
H       -0.58778457     0.72647606     1.74408615
H       -0.91072056    -0.11229823    -0.70284117
C       -0.03755859    -0.02821870    -0.00811315
N       -0.05536424    -0.09700834     1.32980473
H        0.71232437     0.71696713    -0.44567849
H        0.78221545    -0.31218527     1.91127793
H       -0.58158999     0.73069535     1.74436797
H       -0.90899897    -0.12091861    -0.70069815
