6

C       -0.03755859    -0.02821870    -0.00811315
N       -0.05536424    -0.09700834     1.32980473
H        0.71232437     0.71696713    -0.44567849
H        0.78221545    -0.31218527     1.91127793
H       -0.58158999     0.73069535     1.74436797
H       -0.90899897    -0.12091861    -0.70069815
