     6
  Step:   120            Position(A)                                  Velocity(au)
C        -0.03697759    -0.01410928    -0.22463247     0.00005311    -0.00000680     0.00000383
N        -0.04688390    -0.13874767     1.51046811    -0.00007292    -0.00020425     0.00007271
H         0.94100677     0.26959609    -0.62557388    -0.00024856     0.00016961     0.00046275
H         0.78525418     0.34304450     1.90800893    -0.00012882     0.00150308    -0.00069245
H        -0.86359611     0.40757673     1.90458490     0.00109144     0.00066646    -0.00113973
H        -0.98346290     0.40619694    -0.60822807    -0.00033360     0.00058022     0.00031344
