     6
  Step:   120            Position(A)                                  Velocity(au)
C        -0.03989050     0.05495424    -0.03298214    -0.00005270     0.00020543     0.00006336
N        -0.04392242    -0.09676442     1.35995468    -0.00002980    -0.00006472    -0.00017293
H         0.91302954     0.01278495    -0.66310545     0.00026330    -0.00028316     0.00023537
H         0.84782818    -0.01503674     1.86477051    -0.00047068    -0.00044104     0.00042905
H        -0.93380156     0.18516075     1.86214934     0.00085181     0.00063133     0.00032303
H        -0.95429577    -0.16287050    -0.67717613     0.00039770    -0.00145561     0.00066057
