     6
  Step:     0            Position(A)                                  Velocity(au)
C        -0.04056580     0.01665236     0.01212581     0.00000608    -0.00003927    -0.00026267
N        -0.04632444    -0.05775680     1.30163169     0.00014238    -0.00007145     0.00016076
H         0.95490589     0.00352473    -0.51140646    -0.00016271     0.00021493     0.00040313
H         0.84505036    -0.12525675     1.82584704    -0.00113047     0.00053392    -0.00044933
H        -0.91473938    -0.02300722     1.87923503    -0.00076384     0.00028443     0.00076415
H        -0.97102918     0.07913975    -0.53405808     0.00000596     0.00042766     0.00017805
     6
  Step:     1            Position(A)                                  Velocity(au)
C        -0.04041185     0.01624806     0.00884039     0.00002069    -0.00003500    -0.00033208
N        -0.04477488    -0.05857002     1.30386283     0.00013387    -0.00007663     0.00024192
H         0.95290465     0.00593405    -0.50753465    -0.00018916     0.00022543     0.00029589
H         0.83248346    -0.11942985     1.82121554    -0.00110260     0.00052759    -0.00035751
H        -0.92264356    -0.01986562     1.88750438    -0.00064439     0.00028839     0.00072008
H        -0.97192517     0.08388151    -0.53342338    -0.00017086     0.00044062    -0.00006315
     6
  Step:     2            Position(A)                                  Velocity(au)
C        -0.04011307     0.01588669     0.00486087     0.00003196    -0.00003144    -0.00038887
N        -0.04339567    -0.05943324     1.30692414     0.00011180    -0.00008060     0.00031095
H         0.95076771     0.00845655    -0.50493324    -0.00018781     0.00023567     0.00017129
H         0.82092883    -0.11371469     1.81802575    -0.00094500     0.00051437    -0.00018597
H        -0.92883665    -0.01669808     1.89498805    -0.00046091     0.00028931     0.00062759
H        -0.97476718     0.08877917    -0.53543961    -0.00034085     0.00045538    -0.00030024
     6
  Step:     3            Position(A)                                  Velocity(au)
C        -0.03971257     0.01556028     0.00033312     0.00003892    -0.00002859    -0.00043204
N        -0.04232901    -0.06033324     1.31066553     0.00007808    -0.00008344     0.00036547
H         0.94879600     0.01108988    -0.50378732    -0.00016060     0.00024575     0.00003094
H         0.81180978    -0.10817705     1.81714711    -0.00066733     0.00049666     0.00005823
H        -0.93272688    -0.01353641     1.90123404    -0.00023400     0.00028762     0.00050149
H        -0.97938183     0.09384381    -0.53999179    -0.00048693     0.00047029    -0.00052111
