     6
  Step:   120            Position(A)                                  Velocity(au)
C        -0.04622521     0.00493046     0.01855601     0.00004939     0.00002691     0.00009484
N        -0.05596923    -0.01249664     1.31584855    -0.00004612    -0.00009195    -0.00014485
H         0.78174898    -0.44071781    -0.61526826    -0.00063317    -0.00136536     0.00036637
H         0.79889410     0.16216934     1.90929475    -0.00052860     0.00181255    -0.00029070
H        -0.66245299    -0.74591048     1.76796111     0.00072072    -0.00092672     0.00015306
H        -0.80253613     0.46960049    -0.67655445     0.00049346     0.00143656     0.00065409
