     6
  Step:   300            Position(A)                                  Velocity(au)
C        -0.04124189     0.00841301     0.01319491     0.00002139    -0.00000879    -0.00005549
N        -0.04001139    -0.05080856     1.30087999    -0.00002891    -0.00000624     0.00005201
H         0.02665169     0.98590808    -0.46605379     0.00022209    -0.00011509    -0.00013180
H        -0.26109134    -0.90466939     1.81867333     0.00044417     0.00005626     0.00026731
H         0.18301805     0.76333766     1.87989752    -0.00019902     0.00005480     0.00016007
H        -0.11407323    -0.90852564    -0.57519612    -0.00032033     0.00019546    -0.00035707
