12

C       -0.03607712     0.03449977    -0.13166042
N       -0.02514809    -0.00468790     1.44345162
H        0.88154029     0.22959618    -0.71289069
H        0.50306706    -0.86504771     1.75546446
H       -0.91726127     0.11127239     1.96215858
H       -0.90091504    -0.49155344    -0.60252451
C       -0.03631704     0.03474649    -0.12866975
N       -0.02476883    -0.00461318     1.44095661
H        0.87876829     0.23625145    -0.71120319
H        0.49428896    -0.87277494     1.75124264
H       -0.91394310     0.11886333     1.96109978
H       -0.89509445    -0.50205083    -0.59989698
