6

C       -0.03631704     0.03474649    -0.12866975
N       -0.02476883    -0.00461318     1.44095661
H        0.87876829     0.23625145    -0.71120319
H        0.49428896    -0.87277494     1.75124264
H       -0.91394310     0.11886333     1.96109978
H       -0.89509445    -0.50205083    -0.59989698
