6

C       -0.37387150    -0.37100648    -0.69257914
N        0.22362800     0.29053551     2.09409867
H        0.68388401    -1.01313620    -0.49464416
H        1.08623147     1.10639762     1.92595861
H       -1.06938031    -1.10768533    -0.26053229
H       -0.56625972     0.72797258    -1.12605032
