14

C       -5.55423079    -1.13021369    -0.45568331
C       -4.71182581    -0.13133260    -0.28286368
H       -6.27739080    -1.55441121     0.32487674
H       -5.61563648    -1.50228768    -1.38659593
H       -4.43851162     0.24503000    -1.25901689
C       -4.10656846     0.65059990     0.80412947
C       -2.81791803     1.09618272     0.91317772
H       -4.66757089     0.24899225     1.63028366
H       -2.44566955     1.40455640     1.90196613
C       -1.80337033     1.06009506    -0.32230523
H       -2.08541421     0.25525493    -0.86089977
N       -0.56304353     1.57447439    -0.21813314
H        0.12854896     1.05008608    -0.71193622
H       -0.41432740     2.19967667     0.58387080
