14

C   -6.00634028   -0.71349926   -0.03650619   -0.00000804    0.00020533   -0.00033827
C   -4.70562025   -0.78796256    0.09134598   -0.00002139   -0.00017730    0.00017057
H   -6.34727432    0.30237571   -0.31329386    0.00036076    0.00013191    0.00077055
H   -6.70500466   -1.51230101   -0.01127806    0.00030142    0.00093158    0.00053239
H   -4.14734291   -1.68474994    0.27086502   -0.00011376   -0.00118724   -0.00050661
C   -3.88806328    0.44436247   -0.01869967   -0.00019130   -0.00016051    0.00022260
C   -2.54173718    0.45529191    0.08241980    0.00024628    0.00005283    0.00005149
H   -4.31453818    1.39993592   -0.29671942   -0.00006575    0.00036186    0.00037971
H   -2.00359953   -0.36187210    0.48621871    0.00047013   -0.00006754    0.00016166
C   -1.82285869    1.63575699   -0.07805671    0.00025824   -0.00019487   -0.00017061
H   -2.30887530    2.48172470   -0.57709034   -0.00003476    0.00169415    0.00018757
N   -0.57707259    1.86998103    0.30566832   -0.00019409    0.00009806   -0.00014304
H   -0.01799194    2.69825915    0.07924408   -0.00074867    0.00156329   -0.00005754
H   -0.12604518    1.01099294    0.64551361   -0.00085382   -0.00151937    0.00128546
