     6
  Step:   120            Position(A)                                  Velocity(au)
C        -0.03982511    -0.01402963    -0.22467324     0.00000984    -0.00016396    -0.00004786
N        -0.04325716    -0.13766166     1.51650638     0.00005273    -0.00018100     0.00006875
H         0.94960490     0.22385520    -0.65171339     0.00012763     0.00051633     0.00039271
H         0.78529191     0.38430110     1.87257313    -0.00096772     0.00150591    -0.00115094
H        -0.91881655     0.31794075     1.90288127    -0.00004587     0.00087082    -0.00043215
H        -0.95333714     0.48429910    -0.62838422     0.00003589     0.00157598     0.00080527
