6

C   -0.04620938    0.00796619    0.01615159    0.00004208    0.00017706   -0.00025987
N   -0.04553712   -0.04514903    1.29499514    0.00006785   -0.00016654    0.00029576
H    0.92235221   -0.03332338   -0.50067718   -0.00022351   -0.00031254   -0.00024014
H    0.87866479   -0.18390988    1.91069003    0.00044396    0.00030680    0.00020226
H   -0.88339523   -0.05629944    1.82678079   -0.00096614    0.00088111   -0.00062171
H   -0.94712570    0.13623571   -0.53292356   -0.00069848   -0.00067104   -0.00035383
