6

C        0.25682617    -0.07145609    -0.14074393
N       -0.17787362     0.01079364     1.55688797
H       -1.12338874    -0.51457587     0.00304886
H       -0.96007947     0.54786439     2.25351102
H        0.63600608    -0.72059307    -0.73625851
H       -0.35382694     0.71895445    -0.58598476
