6

C        0.17289629     0.02516528     0.05358376
N       -0.16380392    -0.07765658     1.24690337
H       -0.51708652    -0.85967474    -0.24597202
H       -0.73699174    -0.94395075     1.61139611
H        0.04821674     0.83651512     2.17498164
H        0.20897721     1.07629629    -0.61394002
