6

C       -0.03590477    -0.02617408    -0.11637212
N       -0.04811761    -0.12936017     1.41741264
H        0.91236935     0.33222091    -0.48598897
H        0.82815135     0.31159817     1.78462789
H       -0.87249184     0.39651168     1.77018083
H       -0.98447538     0.39942500    -0.48692501
