14

C       -6.17034158    -0.85207113     0.18029058
C       -4.86041606    -0.58170114    -0.01218839
H       -7.00459754    -0.12067861     0.42188840
H       -6.29117987    -1.94447263     0.30862004
H       -4.36851569    -1.54481748    -0.14101670
C       -3.85692147     0.40773140    -0.14738792
C       -2.46849626     0.31150133    -0.15985904
H       -4.13092649     1.58575358    -0.31241544
H       -1.76503123    -0.56489143    -0.25171429
C       -1.72961117     1.57664345    -0.06097693
H       -2.21014476     2.50953506    -0.43200833
N       -0.49646849     2.01341114     0.50035538
H       -0.25912002     2.84115678    -0.03719087
H        0.38262387     1.62716487     0.88906333
