6

C       -0.04150651     0.01560807     0.01712043
N       -0.04081212    -0.04957829     1.29896123
H        0.88810990     0.00741177    -0.54202047
H        0.81222040    -0.17969547     1.84881198
H       -0.88502036    -0.07102904     1.87867790
H       -0.96652850     0.07650622    -0.54825959
