     6
  Step:   120            Position(A)                                  Velocity(au)
C        -0.03338053     0.06973868    -0.16637394    -0.00001831    -0.00004289     0.00032190
N        -0.03482011     0.01070179     1.48138901     0.00008464    -0.00001902    -0.00029458
H         0.93244771    -0.02596181    -0.71909210    -0.00001735     0.00150524    -0.00000486
H         0.57368650    -0.86025221     1.62818455    -0.00142644    -0.00076813    -0.00087321
H        -0.95643534    -0.21454895     1.91264176    -0.00029756     0.00127894     0.00034811
H        -0.88099898    -0.54872779    -0.53308024     0.00078326    -0.00124068     0.00078772
