12

C       -0.04153125     0.06886985     0.00079560
N       -0.03710813    -0.03513265     1.33932117
H        0.86581154    -0.12046590    -0.68127348
H        0.80058891    -0.43589046     1.79306181
H       -0.96909027    -0.06401781     1.81064861
H       -0.89967701    -0.38185029    -0.65153384
C       -0.04195528     0.07001441    -0.00136405
N       -0.03707302    -0.03593216     1.34078350
H        0.87034911    -0.11871363    -0.67904516
H        0.80202843    -0.43921227     1.79440112
H       -0.96883773    -0.05701824     1.81028002
H       -0.90134176    -0.38980860    -0.64931939
