     6
  Step:   300            Position(A)                                  Velocity(au)
C        -0.02314868     0.02217499     0.02391295    -0.00004510     0.00005468     0.00016137
N        -0.04257821    -0.05274406     1.29249092     0.00019532    -0.00003233    -0.00015919
H         0.25832416     0.92861756    -0.51939922    -0.00147404    -0.00005272    -0.00065269
H        -0.21348268    -0.96540618     1.73604987    -0.00267315     0.00058226     0.00047149
H        -0.13481265     0.74544954     1.91870653     0.00044373    -0.00053867     0.00052201
H        -0.25544824    -0.90973682    -0.48917500     0.00152655    -0.00019322    -0.00005161
