6

C       -0.04273206     0.11114070    -0.01078462
N       -0.04312231    -0.08162405     1.33943272
H        0.86945900    -0.24107958    -0.64699162
H        0.84695964    -0.26024129     1.83658705
H       -0.94339790     0.07841832     1.85150841
H       -0.87751728    -0.43696739    -0.63378145
