14

C       -5.96655988    -0.78410427     0.19208132
C       -4.62488946    -0.69264756     0.21995236
H       -6.73073233     0.01574073     0.10566194
H       -6.44643447    -1.68601743     0.54672052
H       -3.77201753    -1.50635123     0.38395936
C       -3.94666294     0.43496255    -0.44171710
C       -2.54451748     0.60830542    -0.44253609
H       -4.41623625     1.32331342    -0.72376242
H       -2.11995164    -0.42540626    -0.40081954
C       -1.87254577     1.68903316     0.19585028
H       -2.40075523     2.48245954     0.61175164
N       -0.57286794     1.73514265     0.46293242
H       -0.37419502     2.19108147     1.35737083
H        0.11836103     1.17295926    -0.00693674
