    14
  Step:   600            Position(A)                                  Velocity(au)
C        -5.52358315    -0.62930382    -0.53204044     0.00015268    -0.00023428     0.00050814
C        -4.35087849    -0.79265234     0.14280894     0.00008810     0.00078355    -0.00047088
H        -6.43578963     0.08913133    -0.29307476     0.00104132     0.00010885    -0.00026118
H        -5.63679649    -1.48279489    -1.27055524    -0.00050639    -0.00025492    -0.00075978
H        -3.85102820    -1.73437853     0.04564452     0.00251715     0.00029621     0.00062447
C        -4.08639994     0.50163254     0.73945711     0.00044050    -0.00027241    -0.00026589
C        -3.08839454     1.36199067     0.26827934     0.00059681    -0.00019292     0.00018747
H        -4.95835092     1.14635642     1.17724443     0.00031399    -0.00009581    -0.00037106
H        -3.42879406     2.39124889     0.00800368    -0.00161466     0.00165681    -0.00236798
C        -1.76104378     0.83951207     0.00094453    -0.00022512     0.00059739     0.00009764
H        -1.63828518    -0.24538838     0.06836284    -0.00259185    -0.00061737    -0.00132895
N        -0.68367373     1.68592250    -0.11672083    -0.00082121    -0.00047558     0.00047188
H         0.08401649     1.15720826    -0.47652811    -0.00073171    -0.00181712    -0.00034394
H        -0.46297915     2.62543283    -0.00378106     0.00043680    -0.00078652    -0.00242202
