12

C       -0.03493794     0.03991200    -0.00333509
N       -0.04354953    -0.05063953     1.34530099
H        0.86576045    -0.15166885    -0.69621200
H        0.86291109    -0.16345132     1.82328287
H       -0.96654742    -0.14198502     1.82031927
H       -0.95354660     0.01544411    -0.71038692
C       -0.03478921     0.04069100    -0.00555110
N       -0.04373424    -0.05100250     1.34720547
H        0.87038208    -0.15575100    -0.69537487
H        0.86544940    -0.16205592     1.82328359
H       -0.96698336    -0.14276503     1.81883852
H       -0.95947603     0.01467228    -0.70980321
