6

C       -0.03478921     0.04069100    -0.00555110
N       -0.04373424    -0.05100250     1.34720547
H        0.87038208    -0.15575100    -0.69537487
H        0.86544940    -0.16205592     1.82328359
H       -0.96698336    -0.14276503     1.81883852
H       -0.95947603     0.01467228    -0.70980321
