12

C       -0.03262292    -0.02238241    -0.17959854
N       -0.04768740    -0.14530035     1.47924708
H        0.92567297     0.27689109    -0.62661691
H        0.76382487     0.46651645     1.74995272
H       -0.90994765     0.32472161     1.85744070
H       -0.94107891     0.54794905    -0.50477728
C       -0.03226384    -0.02254971    -0.17902879
N       -0.04806649    -0.14562813     1.47901520
H        0.92611072     0.27269402    -0.62699026
H        0.76306392     0.47508108     1.74466586
H       -0.90810733     0.32014641     1.85548776
H       -0.94160683     0.55470518    -0.50073120
