6

C   -0.04236901    0.00499047    0.01363079    0.00002948   -0.00005311   -0.00020562
N   -0.04265177   -0.04951637    1.30456102   -0.00009647    0.00004073    0.00027105
H    0.94251943    0.05305743   -0.54305978   -0.00005891    0.00005285   -0.00013967
H    0.84952286   -0.13025470    1.87638190    0.00095467   -0.00010923    0.00039224
H   -0.91424317   -0.08261424    1.80454847    0.00066706   -0.00025089   -0.00142105
H   -0.99316122    0.11866366   -0.53689376   -0.00057347    0.00037417   -0.00014789
