12

C       -0.03578802     0.02540961    -0.15862411
N       -0.05179968    -0.08430949     1.45379012
H        0.89455363     0.43589777    -0.61455702
H        0.79200593    -0.44649758     1.92503912
H       -0.78075181     0.48240345     1.98342315
H       -0.97247306    -0.27276653    -0.71406165
C       -0.03585712     0.02499659    -0.15593961
N       -0.05213272    -0.08416127     1.45144345
H        0.89107138     0.44672522    -0.61165476
H        0.79025028    -0.45606277     1.92514807
H       -0.77318652     0.49183709     1.98022160
H       -0.96934890    -0.28060059    -0.71324969
