     6
  Step:   300            Position(A)                                  Velocity(au)
C        -0.01923867     0.00177433     0.02500223    -0.00009948    -0.00009822     0.00008766
N        -0.05930281    -0.04907984     1.29098080     0.00029907     0.00001963    -0.00014550
H         0.19774624    -0.88642026    -0.58195170    -0.00107740     0.00016972    -0.00064073
H        -0.02893647     0.82202090     1.84590274    -0.00281487    -0.00001545     0.00036830
H        -0.12161904    -0.93863625     1.78903197    -0.00029112     0.00047085     0.00066485
H        -0.20676952     0.99415478    -0.39879992     0.00121282     0.00027248     0.00058500
