    14
  Step:   600            Position(A)                                  Velocity(au)
C        -5.11421941    -0.94272155    -0.71732275     0.00027946    -0.00058709     0.00028201
C        -4.82805346    -0.71205842     0.54602706    -0.00061420     0.00026503    -0.00020884
H        -4.35686136    -0.57005365    -1.43053437     0.00195966    -0.00265105    -0.00016887
H        -5.82108405    -1.49653991    -1.34300157    -0.00066627     0.00109738    -0.00030488
H        -5.62293152    -0.89885872     1.24464326     0.00013162     0.00071371    -0.00245409
C        -4.10364033     0.59382013     0.89952236    -0.00008579    -0.00045563    -0.00013359
C        -2.98736590     0.91150963     0.13743786    -0.00021919     0.00073892     0.00085167
H        -4.72265302     1.16195590     1.63718820     0.00212057     0.00126054    -0.00160146
H        -2.58513504    -0.04930892    -0.24854159    -0.00098938     0.00060460    -0.00214691
C        -1.84163778     1.77709702     0.15330902     0.00051046    -0.00028094     0.00024371
H        -1.79257309     2.74060246     0.79372091     0.00327764    -0.00163270    -0.00040879
N        -0.69287097     1.44736342    -0.47553039    -0.00020242     0.00041641    -0.00043998
H         0.23562164     1.58959901    -0.07441057    -0.00095763    -0.00106066     0.00040062
H        -0.76492098     0.65538004    -1.09905958    -0.00052320    -0.00030869     0.00046604
