12

C       -0.03389510     0.07961017    -0.21676260
N       -0.03815053     0.01146334     1.52218172
H        0.89015163    -0.32498050    -0.62687422
H        0.73991195    -0.64069818     1.74427042
H       -0.94033825    -0.45622552     1.82765411
H       -0.96860456    -0.35582910    -0.62282421
C       -0.03377939     0.08016235    -0.21717331
N       -0.03801197     0.01158478     1.52246229
H        0.89098197    -0.32516890    -0.62399255
H        0.73801754    -0.64383786     1.73959749
H       -0.94189408    -0.45541461     1.82639094
H       -0.96928902    -0.36157945    -0.61877471
