     6
  Step:   120            Position(A)                                  Velocity(au)
C        -0.02538185     0.04700398     0.02104924     0.00005814    -0.00002388     0.00013627
N        -0.04135829    -0.06224350     1.30857997    -0.00001995     0.00001661    -0.00015584
H         0.65010121    -0.58762199    -0.63067954    -0.00082138    -0.00123350     0.00045246
H         0.69043526     0.38521106     1.90674532    -0.00065401     0.00130470    -0.00019414
H        -0.81445129    -0.53657832     1.84628840     0.00068724    -0.00127450    -0.00043411
H        -0.86184823     0.37405175    -0.66563589     0.00037259     0.00125712     0.00071759
