     6
  Step:   300            Position(A)                                  Velocity(au)
C        -0.05283088     0.01108681     0.01782132     0.00006457    -0.00011413     0.00011969
N        -0.02215688    -0.05273553     1.29885723    -0.00023117     0.00003402    -0.00015884
H         0.26086947     0.95771152    -0.43341495    -0.00080732     0.00066025     0.00073274
H        -0.07796733    -0.96214963     1.75653084     0.00025302     0.00030783     0.00037308
H        -0.09502101     0.81200327     1.84596836     0.00222137     0.00011907     0.00024424
H        -0.36337523    -0.87661664    -0.53877169     0.00077600    -0.00019991    -0.00056895
