12

C       -0.03517007     0.05894967    -0.02156123
N       -0.03418776    -0.00866430     1.34922924
H        0.84597447     0.13390596    -0.70671254
H        0.53597039    -0.83058140     1.67488120
H       -0.90316974     0.07614268     1.93545337
H       -0.79753942    -0.63129401    -0.50402527
C       -0.03574681     0.05863210    -0.01868620
N       -0.03376912    -0.00885533     1.34659661
H        0.84474814     0.14181474    -0.70345597
H        0.53112527    -0.83552046     1.67427236
H       -0.90080749     0.08488740     1.93367272
H       -0.79277530    -0.63656961    -0.50256732
