6

C       -0.02746214    -0.00189014     0.02908294
N       -0.03140333    -0.04885498     1.28623914
H        0.11334530    -0.85084451    -0.63501611
H       -0.31799701     0.77481057     1.84908015
H       -0.14140028    -0.88359649     1.86584011
H       -0.10326813     0.99125307    -0.40842230
