6

C       -0.04005827     0.06213734    -0.04872832
N       -0.04709986     0.00057784     1.37375980
H        0.67436650    -0.70763414    -0.46548871
H        0.84056401    -0.08014572     1.93669637
H       -0.66688165    -0.80413933     1.63408415
H       -0.92912973     0.17368065    -0.72284617
