6

C       -0.03611844     0.04391105    -0.14298100
N       -0.05698668     0.00544290     1.45351374
H        0.78439289    -0.58196048    -0.57088361
H        0.85947442    -0.06295190     1.96454064
H       -0.66592150    -0.80844339     1.73368231
H       -0.96858608     0.18470741    -0.73006795
