6

C       -0.02245231     0.02725048     0.03028837
N       -0.03612076    -0.05768150     1.28692553
H        0.22373391     0.92663552    -0.53730378
H       -0.33046931    -0.93861140     1.74223425
H       -0.12698981     0.72111587     1.94250234
H       -0.20970827    -0.90207428    -0.49989064
