    14
  Step:   600            Position(A)                                  Velocity(au)
C        -4.67315670    -1.08152558    -0.30890893    -0.00009497    -0.00035329    -0.00001385
C        -5.14350520     0.11651022    -0.00101760     0.00016607     0.00004192    -0.00034887
H        -3.63131241    -1.15689282    -0.37417754     0.00226219    -0.00135290     0.00083133
H        -5.08045981    -1.93615076    -0.81682619     0.00061003    -0.00138336    -0.00039137
H        -6.11924366     0.58490391     0.07591685    -0.00045047    -0.00005193     0.00067294
C        -4.26434408     0.92344866     0.70022079     0.00022401     0.00032402     0.00055804
C        -2.89486846     0.91156464     0.47504847    -0.00070558     0.00012883    -0.00018160
H        -4.50065270     1.58494960     1.53086982    -0.00034262     0.00274428    -0.00207466
H        -2.26830907     1.25822020     1.38902054    -0.00084723    -0.00193082    -0.00077074
C        -1.90450611     0.88862547    -0.49413934    -0.00023746     0.00006732     0.00024278
H        -2.03903858     0.53808857    -1.54936496    -0.00031433     0.00268577    -0.00064656
N        -0.75944876     1.31048132     0.00029092     0.00044524    -0.00018274     0.00005934
H         0.02613137     1.32258328    -0.70909587    -0.00175902     0.00089219    -0.00196010
H        -0.82706770     1.27770051     1.04072905     0.00237499    -0.00155202     0.00045814
