6

C       -0.05671062     0.00239515     0.02885329
N       -0.04778422    -0.05438182     1.28758710
H        0.13562373     0.99398535    -0.38005968
H        0.09816848    -0.89858600     1.84289523
H        0.18421972     0.78984708     1.83462317
H       -0.29114840    -0.82787008    -0.64199950
