    14
  Step:   600            Position(A)                                  Velocity(au)
C        -5.70717661    -0.49667549     0.55019973     0.00066227     0.00021545    -0.00017807
C        -4.71263653    -0.82049439    -0.37999193     0.00008215     0.00008499    -0.00053813
H        -6.10728997    -1.28465150     1.06600759     0.00200895    -0.00031590     0.00071964
H        -6.42484283     0.20229667     0.76507232     0.00092579     0.00038774     0.00149186
H        -4.40056412    -1.92861016    -0.17423345     0.00228810     0.00448043     0.00243286
C        -3.81572961     0.33781712    -0.57582325    -0.00032719    -0.00010958     0.00059909
C        -2.72191569     0.46602377     0.09829710    -0.00027101     0.00025379    -0.00009663
H        -4.07289610     1.19280329    -1.26870211     0.00221912    -0.00049222     0.00026473
H        -2.31143853    -0.00420097     1.03654398    -0.00042235     0.00102514    -0.00074303
C        -1.81233856     1.56936863    -0.13644622     0.00018748    -0.00055239    -0.00000511
H        -1.82344028     2.00015825    -1.10874191    -0.00070653     0.00028657    -0.00138042
N        -0.77816478     1.87947463     0.61342845    -0.00061879    -0.00039485    -0.00018080
H        -0.09905155     2.61699461     0.31152470    -0.00018821     0.00012765     0.00228761
H        -0.25822922     1.14468310     1.14938426    -0.00150225     0.00127142     0.00004690
