6

C       -0.06243455     0.11341484    -0.01749264
N       -0.04668310    -0.09409217     1.33507147
H        0.92148659     0.01500285    -0.61378430
H        0.78191768    -0.47495395     1.82988538
H       -0.79411121     0.39192024     1.89096276
H       -0.72954923    -0.64568094    -0.55919045
