6

C       -0.03866945    -0.02192245    -0.10499202
N       -0.05315875    -0.11489362     1.41220694
H        0.78354642     0.65090290    -0.49042831
H        0.82674036    -0.15973863     1.96512815
H       -0.65122109     0.68790161     1.75878535
H       -0.97251569     0.00899067    -0.71489955
