    14
  Step:   600            Position(A)                                  Velocity(au)
C        -5.86029725    -0.65551298    -0.22617588    -0.00033939     0.00022700     0.00057547
C        -4.58787582    -0.19748192    -0.41454643     0.00011451    -0.00017654    -0.00018746
H        -6.14388123    -0.88221367     0.79059499    -0.00024355    -0.00349832    -0.00118452
H        -6.41963639    -0.80901786    -1.14657832    -0.00064567     0.00326052     0.00067889
H        -4.19271679     0.05977982    -1.37458949     0.00096762     0.00104843     0.00059367
C        -3.77360814     0.01542152     0.68757860     0.00026865     0.00017185    -0.00049824
C        -2.77813860     0.93434496     0.67563688     0.00018611    -0.00007172    -0.00050801
H        -4.23743728     0.09401235     1.61534803     0.00089912    -0.00273644    -0.00041836
H        -2.55209740     1.22691269     1.75421042    -0.00264411    -0.00108087    -0.00033252
C        -1.60288615     0.84719725    -0.23463151    -0.00024086    -0.00019534     0.00082188
H        -1.62436089     0.25142268    -1.14334664     0.00087835    -0.00183030     0.00120173
N        -0.82866123     1.91696138    -0.07396092     0.00025410     0.00048423     0.00000465
H        -0.46893125     2.31295913    -0.91618561     0.00060430    -0.00236041    -0.00186182
H        -1.14707103     2.50005947     0.64893575    -0.00321640     0.00100158    -0.00116826
