6

C       -0.03533551     0.00300965     0.02480686
N       -0.04442070    -0.04708989     1.29418885
H        0.88514660    -0.18509918    -0.51904837
H        0.80229687     0.08856699     1.84395464
H       -0.91627669    -0.20594688     1.79783094
H       -0.94574560     0.25119601    -0.51078675
