     6
  Step:   120            Position(A)                                  Velocity(au)
C        -0.02938363     0.06226646    -0.11927358    -0.00001752    -0.00005283     0.00052255
N        -0.03445015     0.00907233     1.43954445     0.00009262    -0.00001423    -0.00045846
H         0.89841233     0.03657226    -0.73154519    -0.00015022     0.00156565     0.00015332
H         0.55427450    -0.85184337     1.61017448    -0.00137363    -0.00079475    -0.00077739
H        -0.96989044    -0.12879767     1.90964126    -0.00021618     0.00140063     0.00030726
H        -0.86685844    -0.59374960    -0.47938692     0.00066176    -0.00134425     0.00046094
