6

C       -0.03876765    -0.03341322    -0.00762426
N       -0.05458739    -0.10339794     1.32728710
H        0.70565915     0.74809005    -0.38586351
H        0.80103652    -0.28304648     1.89685818
H       -0.58076601     0.73764991     1.72596244
H       -0.91834319    -0.03743856    -0.69851754
