6

C       -0.02133689     0.09496304    -0.01024218
N       -0.04826490    -0.05277040     1.34108492
H        0.73723311    -0.56750168    -0.60519467
H        0.87242668    -0.07006855     1.83952548
H       -0.92863571    -0.35389916     1.80540361
H       -0.96899595    -0.07658318    -0.66183674
