6

C       -0.22554406    -0.01954868    -0.11255739
N        0.06932869     0.00112560     1.45183279
H        0.34762443    -0.60163387    -0.81392999
H        0.33231889     1.00814037     1.46688294
H        1.02574711    -0.58118230     2.12690978
H       -1.19474468    -0.27752042    -0.72162123
