6

C        0.06063028     0.06074852    -0.53219232
N       -0.13175206    -0.09562493     1.73615852
H       -0.25930061    -0.80356226    -1.09199070
H       -0.53178562     0.02068759     2.66481863
H        0.85568447    -0.29259613     2.03652420
H       -0.16915484     1.01068196    -0.50211350
