     6
  Step:   300            Position(A)                                  Velocity(au)
C        -0.04334925     0.02241652     0.02104636     0.00004540     0.00004161     0.00015393
N        -0.04385748    -0.05714118     1.29452609    -0.00013843    -0.00001884    -0.00014773
H         0.13106494    -0.91325124    -0.51584654    -0.00172531    -0.00011483    -0.00012495
H         0.05398587     0.76511060     1.89252703    -0.00105306    -0.00033833     0.00056429
H        -0.03958378    -0.97490031     1.75350597     0.00257252     0.00024100     0.00049353
H        -0.23240151     0.98020388    -0.47813832     0.00158845    -0.00002194    -0.00071421
