     6
  Step:   120            Position(A)                                  Velocity(au)
C        -0.06462994    -0.06758106    -0.03194684    -0.00009441    -0.00008023    -0.00001964
N        -0.03697811    -0.04104669     1.34616924    -0.00000823     0.00009002    -0.00010272
H         0.90943340     0.02904802    -0.63505507    -0.00001228    -0.00089767     0.00043426
H         0.82113630     0.23149379     1.86431380    -0.00050597     0.00091537     0.00021392
H        -0.92849044    -0.29167090     1.85449697     0.00077598    -0.00142371     0.00010499
H        -0.73101385     0.73706069    -0.51788387     0.00098168     0.00111113     0.00090825
