12

C       -0.02532525     0.06735153    -0.01092027
N       -0.04285228    -0.00561311     1.34408384
H        0.82563939    -0.03878224    -0.73920088
H        0.64179900    -0.73558246     1.67989384
H       -0.93297625    -0.05764411     1.89518302
H       -0.85012773    -0.56233160    -0.49157736
C       -0.02578631     0.06732799    -0.00788152
N       -0.04225746    -0.00606171     1.34126360
H        0.82443232    -0.03263228    -0.73651656
H        0.63710407    -0.73781110     1.67882349
H       -0.93360920    -0.04904047     1.89522496
H       -0.84636464    -0.56834212    -0.49025193
