6

C       -0.04077860     0.00471431    -0.21493800
N       -0.05346043    -0.10436951     1.50612621
H        0.94417767     0.40209344    -0.61748804
H        0.91337495    -0.13236645     1.95644318
H       -0.83890829     0.42049054     1.93186733
H       -1.00275877     0.03417117    -0.74723292
