12

C       -0.03719253    -0.00196332    -0.03034829
N       -0.05712738    -0.08959751     1.34846988
H        0.74269346     0.64311739    -0.53651438
H        0.74526875    -0.42929674     1.93539115
H       -0.59229326     0.69977611     1.81777755
H       -0.87157029    -0.31488426    -0.70178678
C       -0.03685931    -0.00220244    -0.02728492
N       -0.05740383    -0.08921454     1.34574993
H        0.73566169     0.65041470    -0.53273837
H        0.73986856    -0.43735885     1.93202737
H       -0.58412328     0.70638852     1.81648993
H       -0.86743723    -0.32320428    -0.69961730
