6

C       -0.00481686    -0.06591708     0.02291130
N        0.02685998     0.01229885     1.34147070
H        0.08403923     0.73367403    -0.78136482
H       -0.44538395    -1.01194370     1.87220810
H       -0.69098097     0.71350653     1.65680791
H       -0.47651711    -0.49085956    -0.77076621
