14

C   -6.04084646   -0.72165954   -0.22022301    0.00023826   -0.00004824   -0.00007545
C   -4.69802529   -0.70600692    0.23199254   -0.00017299   -0.00010218   -0.00001041
H   -6.38515766    0.16171132   -0.76092975    0.00057291   -0.00052927    0.00129304
H   -6.72990933   -1.61131827   -0.12821137    0.00030597    0.00022805    0.00047489
H   -4.24274608   -1.63450937    0.61336839    0.00030668    0.00090027    0.00031044
C   -3.85590376    0.41834069   -0.01148240   -0.00002883    0.00013772   -0.00026043
C   -2.52873933    0.41921266    0.29239011   -0.00018276    0.00016795    0.00010089
H   -4.23839941    1.32928868   -0.47927170    0.00049546   -0.00059332    0.00062289
H   -1.89076539   -0.36195223    0.68714772    0.00018880   -0.00038775    0.00004824
C   -1.81919957    1.64078853   -0.04701728    0.00000959    0.00007237    0.00007323
H   -2.38117605    2.42454543   -0.48928323   -0.00063843    0.00052837    0.00008231
N   -0.59223108    1.87404204    0.17700404    0.00006990   -0.00021991   -0.00005947
H   -0.16181713    2.72301854   -0.20470599    0.00012776   -0.00028978    0.00056234
H    0.00892243    1.04784071    0.38865061   -0.00070137    0.00048714   -0.00051602
