6

C       -0.03470380    -0.02483870    -0.02860568
N       -0.03416278    -0.01121815     1.36026764
H        0.86081423     0.36860268    -0.63988902
H        0.74942756    -0.55020721     1.81698744
H       -0.95349069     0.03959238     1.84717395
H       -0.98142283    -0.07588711    -0.69413179
