14

C       -5.29339224    -1.22140265    -0.35152037
C       -5.10594582     0.07335529    -0.27881834
H       -5.00972050    -1.74731927     0.56927123
H       -5.52958992    -1.54467243    -1.31467927
H       -5.46303096     0.71359363    -1.04847116
C       -4.07884655     0.49027324     0.69619424
C       -2.85646688     1.17210315     0.59993769
H       -4.26217483     0.08010359     1.76519673
H       -2.84643541     1.34718440     1.76850473
C       -1.78234798     1.27064155    -0.36458647
H       -2.11051719     0.84572670    -1.38179447
N       -0.49961888     1.37049291     0.05323081
H        0.21441340     1.21746109    -0.69520564
H       -0.22431852     1.41568322     1.02151335
