6

C       -0.04747477    -0.02281302    -0.16164308
N       -0.05003940    -0.13465970     1.46111254
H        0.80402595     0.64058455    -0.39126910
H        0.87811461     0.03229995     1.95598934
H       -0.65696206     0.68132906     1.68948065
H       -0.97703640     0.11913898    -0.74014830
