6

C       -0.05742955     0.00050468     0.02524757
N       -0.03748771    -0.05106041     1.29214432
H        0.20430658     0.96401506    -0.40067411
H        0.09925198    -0.91207463     1.82945164
H        0.02432440     0.82617283     1.81195926
H       -0.33553579    -0.84435494    -0.60563124
