6

C   -0.04551430    0.01549451    0.00028834    0.00007191    0.00019485    0.00012236
N   -0.03662213   -0.05464150    1.31329027    0.00018693   -0.00018262    0.00002300
H    0.94248794    0.02553432   -0.52751046   -0.00019889   -0.00081897    0.00014045
H    0.84795251   -0.08122547    1.84161471   -0.00149591    0.00103323   -0.00178270
H   -1.01091629   -0.06298423    1.84831020   -0.00128521    0.00046560    0.00050519
H   -0.94119679    0.02358138   -0.52375300   -0.00047453   -0.00046385   -0.00064053
