12

C       -0.03129234     0.07439011    -0.11043872
N       -0.04059606     0.01057664     1.42296665
H        0.88249349    -0.37967700    -0.47781465
H        0.77500347    -0.59596634     1.69627354
H       -0.90443694    -0.48480218     1.69305271
H       -1.02897048    -0.24275448    -0.47752480
C       -0.03132681     0.07440388    -0.11035097
N       -0.04088339     0.01079073     1.42261332
H        0.88203046    -0.37954025    -0.47417290
H        0.77583692    -0.59892093     1.69417070
H       -0.90219015    -0.48441800     1.68977348
H       -1.02718410    -0.24345994    -0.47192013
