6

C       -0.04942747     0.00356275     0.02990608
N       -0.05456571    -0.05086543     1.28595403
H        0.05965418     0.99355695    -0.41525590
H       -0.03625369    -0.88864806     1.87218132
H        0.33797293     0.73077321     1.84500129
H       -0.22707036    -0.84107374    -0.63631863
