     6
  Step:   600            Position(A)                                  Velocity(au)
C         0.12536356     0.09852453     0.15179539     0.00041376    -0.00021750     0.00040341
N        -0.14610673    -0.08107555     1.16114425    -0.00052060     0.00033866    -0.00059734
H         0.88047807    -0.46214519    -0.30558787     0.00286852     0.00138084    -0.00326080
H         0.61639189    -0.26664677     1.79517498    -0.00237138    -0.00188352    -0.00115729
H        -1.39001043    -0.37342575     1.86767582     0.00135133     0.00042706     0.00409404
H        -0.78342474     0.38469795    -0.40968815     0.00045553    -0.00203874     0.00381789
