    14
  Step:   600            Position(A)                                  Velocity(au)
C        -4.73993547    -0.80634145    -0.86387495    -0.00022267     0.00005758     0.00012933
C        -4.94589694    -0.39965981     0.35528124     0.00065172    -0.00031400    -0.00000967
H        -4.61156694     0.01966217    -1.49668968    -0.00162193     0.00027737     0.00039948
H        -4.88904589    -1.81703272    -1.16549729     0.00216968     0.00118268    -0.00278429
H        -5.29411162    -0.94588814     1.22587154     0.00224181    -0.00078835     0.00088949
C        -4.28186545     1.09408529     0.61535939     0.00028138     0.00012112     0.00068369
C        -3.07038350     1.47992520     0.18447376     0.00010941     0.00026000    -0.00124349
H        -5.07033142     1.80963417     0.99162457     0.00088075     0.00130488     0.00146021
H        -2.99639243     2.53532505     0.10157342    -0.00007300    -0.00045961    -0.00092621
C        -1.91400807     0.61435815     0.12337491    -0.00024598     0.00004212    -0.00050663
H        -1.88207111    -0.52577962     0.46875717    -0.00056178     0.00200946     0.00047421
N        -0.66303436     1.11087499    -0.00979795    -0.00069359    -0.00025625     0.00063842
H         0.11246671     0.45553612    -0.27672310    -0.00115909    -0.00128600     0.00185481
H        -0.29476153     2.04990088     0.36035547     0.00092374    -0.00066727     0.00104236
