     6
  Step:   300            Position(A)                                  Velocity(au)
C        -0.05365358     0.03050220     0.03029441     0.00004341     0.00002892     0.00005718
N        -0.04909452    -0.05782629     1.28648152    -0.00017365    -0.00004050    -0.00005837
H         0.03968493    -0.92003556    -0.49285392    -0.00168570     0.00013506    -0.00034603
H         0.14557635     0.70488523     1.94313400    -0.00072646    -0.00029918     0.00041319
H         0.12676837    -0.96996233     1.73655042     0.00271865     0.00058110     0.00051106
H        -0.20338884     0.95544693    -0.53316865     0.00158939    -0.00019881    -0.00044836
