12

C       -0.04219898    -0.02430220    -0.07870858
N       -0.05278527    -0.11946201     1.39112093
H        0.76085744     0.69559236    -0.42739811
H        0.84318823    -0.11607753     1.93751455
H       -0.64263239     0.69495479     1.73146190
H       -0.93796560     0.00542868    -0.74315718
C       -0.04187441    -0.02431952    -0.07523295
N       -0.05307977    -0.11912667     1.38814094
H        0.75617334     0.70171528    -0.42444460
H        0.84109394    -0.12440816     1.93525879
H       -0.63694295     0.70117522     1.72935977
H       -0.93665180    -0.00303768    -0.74175752
