6

C       -0.04187441    -0.02431952    -0.07523295
N       -0.05307977    -0.11912667     1.38814094
H        0.75617334     0.70171528    -0.42444460
H        0.84109394    -0.12440816     1.93525879
H       -0.63694295     0.70117522     1.72935977
H       -0.93665180    -0.00303768    -0.74175752
