6

C       -0.04634355     0.01036215     0.01378118
N       -0.02860139    -0.05456454     1.30009186
H       -0.04323527    -0.89421728    -0.59268043
H       -0.23668359     0.77805737     1.85997935
H        0.05423570    -0.91026840     1.84993806
H       -0.03756669     0.99143040    -0.45594164
