     6
  Step:   120            Position(A)                                  Velocity(au)
C        -0.03132005     0.04186258    -0.06581768     0.00003008    -0.00005106     0.00070286
N        -0.04739502    -0.04711105     1.37869964    -0.00007183     0.00002831    -0.00061360
H         0.73034721    -0.55197761    -0.64478018    -0.00113603    -0.00129393     0.00043446
H         0.74271438     0.27922261     1.99236851    -0.00063890     0.00138551    -0.00015317
H        -0.76092842    -0.67735253     1.83685324     0.00156637    -0.00116726    -0.00068168
H        -0.89325117     0.43615974    -0.66700015     0.00084837     0.00129067     0.00055194
