6

C       -0.02361598     0.00101659     0.01511844
N       -0.05657178    -0.04258605     1.29935513
H        0.93976241     0.05800949    -0.49309425
H        0.79048813    -0.20320294     1.84707009
H       -0.91631566     0.06100180     1.84595035
H       -0.95932881    -0.00592518    -0.54434224
