     6
  Step:   120            Position(A)                                  Velocity(au)
C        -0.04554838     0.06825369    -0.15636745    -0.00000858    -0.00005406     0.00034717
N        -0.04208348     0.01351566     1.47295239    -0.00006367    -0.00003314    -0.00031543
H         0.80550347    -0.59573753    -0.46268616    -0.00080707    -0.00125547     0.00079642
H         0.85078808    -0.32363739     1.91987207     0.00039296     0.00158321     0.00041906
H        -0.74891462    -0.74915720     1.56808582     0.00126971    -0.00094266    -0.00090939
H        -0.99277401    -0.00238776    -0.73863543     0.00013151     0.00171965    -0.00005967
