     6
  Step:   120            Position(A)                                  Velocity(au)
C        -0.04187441    -0.02431952    -0.07523295     0.00005905    -0.00000248     0.00062025
N        -0.05307977    -0.11912667     1.38814094    -0.00005387     0.00006258    -0.00053239
H         0.75617334     0.70171528    -0.42444460    -0.00083875     0.00108838     0.00051711
H         0.84109394    -0.12440816     1.93525879    -0.00037681    -0.00149658    -0.00039707
H        -0.63694295     0.70117522     1.72935977     0.00102661     0.00108689    -0.00036492
H        -0.93665180    -0.00303768    -0.74175752     0.00023398    -0.00151868     0.00025226
