12

C       -0.02396898     0.07088129     0.01733392
N       -0.05372264    -0.03259679     1.31596484
H        0.67341934    -0.65695402    -0.55209161
H        0.81567476     0.11774727     1.89216901
H       -0.76410798    -0.67364724     1.74536277
H       -0.90574812     0.15142906    -0.68706141
C       -0.02288632     0.07101905     0.01635408
N       -0.05437034    -0.03324735     1.31651512
H        0.66951652    -0.66346947    -0.55132062
H        0.81427568     0.12813804     1.89130291
H       -0.76032719    -0.67818618     1.74658796
H       -0.90812736     0.15949152    -0.68416254
