12

C       -0.03717953     0.06266458    -0.01355806
N       -0.04706140    -0.00796988     1.34485410
H        0.69726375    -0.66513153    -0.51325927
H        0.82455938    -0.03280822     1.92291215
H       -0.72371350    -0.75691067     1.66801551
H       -0.91403110     0.14911376    -0.71264846
C       -0.03659930     0.06248302    -0.01084710
N       -0.04760821    -0.00840901     1.34226887
H        0.69178571    -0.66991347    -0.51087368
H        0.82436222    -0.02340911     1.92173320
H       -0.71898186    -0.76029112     1.66737509
H       -0.91240301     0.15614273    -0.70959337
