6

C       -0.04429442     0.05407005    -0.02357890
N       -0.04413293    -0.05052368     1.34389523
H        0.85229941     0.30721799    -0.66857586
H        0.61360329    -0.72074207     1.82129231
H       -0.76588095     0.38298751     1.96041930
H       -0.77188272    -0.58145956    -0.61536947
