     6
  Step:   120            Position(A)                                  Velocity(au)
C        -0.03245626     0.06096412    -0.04280383    -0.00008994    -0.00006773     0.00056145
N        -0.03439286    -0.00093787     1.36834687     0.00006796    -0.00005131    -0.00050981
H         0.85616914     0.13962440    -0.71478461    -0.00031578     0.00156704     0.00053285
H         0.50100962    -0.88043891     1.64098959    -0.00102429    -0.00080195    -0.00014271
H        -0.91541033     0.01453356     1.93165664     0.00052050     0.00173080    -0.00027763
H        -0.79002528    -0.65691622    -0.47078988     0.00094688    -0.00097572     0.00028181
