     6
  Step:   300            Position(A)                                  Velocity(au)
C        -0.00703519     0.00129285     0.02349516     0.00002871    -0.00005725    -0.00000450
N        -0.09171566    -0.04797637     1.29458921    -0.00013954     0.00003609     0.00006012
H         0.15798469     0.96918241    -0.45202754     0.00133804    -0.00009233    -0.00002063
H        -0.06857786    -0.90074297     1.87172833     0.00196963    -0.00017456    -0.00041445
H         0.18676041     0.75890792     1.85671321    -0.00067709     0.00022452     0.00000830
H        -0.13074776    -0.84582401    -0.65441386    -0.00103348     0.00022295    -0.00035514
