6

C       -0.02165432    -0.04214129     0.00378189
N       -0.04223296    -0.03934353     1.32218567
H        0.69397890     0.67178613    -0.54614523
H        0.71033162    -0.57626599     1.82833241
H       -0.83214716     0.36786007     1.86781128
H       -0.94017417    -0.08426085    -0.67656844
