6

C       -0.03406537     0.00649321     0.02858801
N       -0.03327008    -0.05245212     1.28664198
H        0.01912153    -0.85925917    -0.63099384
H       -0.28869600     0.75594937     1.87535229
H       -0.03499579    -0.90766241     1.85647851
H       -0.04011715     0.99271645    -0.42907112
