     6
  Step:   600            Position(A)                                  Velocity(au)
C         0.01922135    -0.20280888     0.02211791    -0.00066422    -0.00010538     0.00056600
N        -0.08937589     0.07183809     1.29938059    -0.00005919    -0.00019152    -0.00041792
H         0.48733604    -0.63687679    -0.77257306     0.00624677     0.00163616     0.00086130
H         1.08098403     0.53711868     1.48516325     0.00354160     0.00032711    -0.00022940
H        -0.81225274     0.58927136     2.07760691     0.00159475     0.00155997     0.00530983
H        -0.95593937     0.25920080    -0.21832183    -0.00264567     0.00039392    -0.00687855
