     6
  Step:   120            Position(A)                                  Velocity(au)
C        -0.03047163     0.07302797    -0.18710746     0.00001534     0.00002041     0.00025362
N        -0.05090628     0.00736996     1.49682251    -0.00004570    -0.00001616    -0.00023448
H         0.74571702    -0.62498892    -0.56500976    -0.00084916    -0.00147417     0.00076084
H         0.84433724    -0.27173239     1.92579852     0.00013007     0.00138087     0.00023575
H        -0.73244343    -0.79407869     1.66646777     0.00104160    -0.00116892    -0.00078863
H        -1.00002714     0.04839853    -0.70600374     0.00012979     0.00124356     0.00002825
