14

C   -5.99151231   -0.79331289    0.01048826    0.00010919   -0.00011131   -0.00017004
C   -4.62569046   -0.74065428    0.13063966   -0.00020034   -0.00010446    0.00011120
H   -6.54110170   -0.01769650   -0.56023069    0.00113225    0.00036589    0.00070613
H   -6.56050052   -1.72821675    0.18201562   -0.00051892   -0.00035708   -0.00028821
H   -4.09875313   -1.59835725    0.53445265   -0.00044704   -0.00069359    0.00018152
C   -3.93975858    0.49105642   -0.18959534   -0.00003130    0.00015417    0.00012798
C   -2.61039788    0.56955386    0.12670373    0.00019270    0.00003339   -0.00006199
H   -4.52640685    1.25013721   -0.67900003    0.00006704    0.00063182    0.00006777
H   -2.17881154   -0.33915035    0.55089098   -0.00000952    0.00133499    0.00000032
C   -1.82032266    1.77348667   -0.03399552   -0.00032314    0.00016427   -0.00002128
H   -2.20964958    2.76114267   -0.39497053   -0.00013602   -0.00125818   -0.00057444
N   -0.55639768    1.68922056    0.29814682    0.00000790   -0.00006037   -0.00002862
H    0.11591401    2.46991662    0.22081386    0.00196476   -0.00003442    0.00002788
H    0.01614165    0.87668321    0.48947215    0.00085111   -0.00077188    0.00044510
