     6
  Step:   120            Position(A)                                  Velocity(au)
C        -0.03919366     0.03061082    -0.07748303     0.00004601     0.00003262     0.00059835
N        -0.05831693    -0.00070798     1.39655220    -0.00004218    -0.00002616    -0.00053843
H         0.75805711    -0.58731604    -0.56892586    -0.00118618    -0.00153386     0.00052853
H         0.82953543     0.06399805     1.96366211    -0.00060442     0.00162676    -0.00023276
H        -0.61437196    -0.83343776     1.72548542     0.00117329    -0.00130822    -0.00043567
H        -0.90873053     0.33206885    -0.71186923     0.00065522     0.00119012     0.00049218
