     6
  Step:   120            Position(A)                                  Velocity(au)
C        -0.04202397    -0.03024971    -0.05212164     0.00006738    -0.00000575     0.00057716
N        -0.05227264    -0.11462832     1.36588862    -0.00008576     0.00013474    -0.00053119
H         0.74244670     0.70683222    -0.39495643    -0.00091792     0.00089058     0.00051076
H         0.83107455    -0.15818529     1.93687500    -0.00014262    -0.00168419    -0.00020590
H        -0.62100088     0.70579975     1.70686331     0.00111102     0.00052210    -0.00014951
H        -0.93829757     0.02916073    -0.71652058     0.00033834    -0.00153233     0.00034877
