12

C       -0.03707099    -0.05152721    -0.00521389
N       -0.04375653    -0.07134863     1.33487601
H        0.85517983     0.40127083    -0.62958410
H        0.85543128     0.05439111     1.83575348
H       -0.93514472     0.11734525     1.82006623
H       -0.93861703     0.36268530    -0.62195530
C       -0.03718974    -0.05265229    -0.00761531
N       -0.04370370    -0.07059554     1.33644157
H        0.85928785     0.40568177    -0.62605197
H        0.85727374     0.05161201     1.83667084
H       -0.93654166     0.11614757     1.81942202
H       -0.94248974     0.36519243    -0.61890074
