     6
  Step:   300            Position(A)                                  Velocity(au)
C        -0.03363522     0.01083416     0.01269172    -0.00000936    -0.00001881     0.00002316
N        -0.05012434    -0.05079507     1.30318812     0.00003120     0.00000482    -0.00004608
H         0.23120376    -0.89229518    -0.52917277    -0.00025197    -0.00035950     0.00018900
H         0.07485421     0.80339598     1.84995436    -0.00055783     0.00006377    -0.00013905
H        -0.12629613    -0.96173398     1.76182062     0.00022538     0.00003965    -0.00011449
H        -0.29536955     0.95763576    -0.45136594     0.00026235     0.00041317     0.00042897
