14

C   -5.98810073   -0.77321710   -0.05314751   -0.00024780   -0.00003069   -0.00014671
C   -4.66639556   -0.77272729    0.12342322    0.00020654    0.00006058    0.00010358
H   -6.60273606    0.07647135   -0.48037237   -0.00013374    0.00076347    0.00030859
H   -6.55474843   -1.70848650    0.13378051    0.00105015   -0.00006651    0.00051880
H   -4.09520401   -1.65993772    0.50992865   -0.00059896    0.00015961   -0.00062688
C   -3.95430072    0.47262475   -0.09179276   -0.00011165    0.00007683    0.00002490
C   -2.58197625    0.56395898    0.11240706    0.00008251   -0.00021405    0.00005848
H   -4.57947490    1.29033727   -0.50573776    0.00049030   -0.00064151    0.00000963
H   -2.07455948   -0.28006391    0.49911394    0.00001946    0.00126697   -0.00047629
C   -1.83342283    1.73601162   -0.01760558    0.00017469   -0.00016852   -0.00001563
H   -2.23100066    2.75036552   -0.36749766   -0.00020754   -0.00026790    0.00056153
N   -0.51319115    1.73413661    0.27497299   -0.00018058    0.00013238   -0.00013266
H   -0.01556274    2.59912426    0.13785918    0.00047008   -0.00075623    0.00055587
H    0.00480961    0.85805682    0.39231602    0.00017697    0.00098947    0.00069888
