     6
  Step:   120            Position(A)                                  Velocity(au)
C        -0.04693265    -0.02939509    -0.10632760     0.00002363    -0.00001429     0.00055681
N        -0.04808758    -0.12246146     1.41710366    -0.00004918     0.00003389    -0.00047147
H         0.81992698     0.61760575    -0.43476220    -0.00071419     0.00117773     0.00076980
H         0.85167596     0.01128756     1.94826986    -0.00005966    -0.00131706    -0.00027095
H        -0.69357489     0.65249586     1.68854675     0.00101321     0.00120928    -0.00065863
H        -0.96348710     0.10088388    -0.73559027     0.00016246    -0.00137065     0.00007653
