6

C       -0.03538400    -0.00479823    -0.19294845
N       -0.05681675    -0.12441612     1.48604076
H        0.88422624     0.51301811    -0.59382045
H        0.84511192    -0.04289416     1.97889399
H       -0.72772310     0.60330636     1.87183231
H       -1.00338549     0.04291775    -0.71622514
