     6
  Step:   300            Position(A)                                  Velocity(au)
C        -0.03735385     0.00885588     0.02761784     0.00001100     0.00002987     0.00000894
N        -0.04650665    -0.05146413     1.29142604    -0.00001655    -0.00001015    -0.00000201
H         0.22149771     0.94145605    -0.47915745     0.00105361    -0.00022813     0.00027244
H         0.00003138    -0.93687851     1.80327872     0.00117730    -0.00018511    -0.00053044
H        -0.03567184     0.79200665     1.87354509    -0.00108490     0.00020090    -0.00037649
H        -0.30742721    -0.85675105    -0.58080698    -0.00104714    -0.00000258     0.00055582
