14

C   -5.91603362   -0.86963590   -0.15045430   -0.00003478   -0.00029574    0.00016236
C   -4.66138130   -0.72517591    0.18451733   -0.00004096    0.00020931   -0.00018679
H   -6.49800098    0.05405463   -0.42465872    0.00075869   -0.00077000    0.00027748
H   -6.51016261   -1.76399455   -0.02244800   -0.00071474    0.00015292   -0.00032054
H   -4.03477386   -1.53634388    0.53289871    0.00062350    0.00004297    0.00041769
C   -4.00273230    0.54708094   -0.02699437   -0.00000272   -0.00003358   -0.00004726
C   -2.62392316    0.62890872    0.14596927   -0.00007036    0.00003232   -0.00010487
H   -4.67341299    1.34036684   -0.30227488   -0.00093222    0.00099051   -0.00011846
H   -2.13583969   -0.28838089    0.47723656    0.00000216    0.00054733    0.00077346
C   -1.84004095    1.76507359   -0.01019280    0.00048399    0.00015258    0.00017934
H   -2.26528417    2.76415825   -0.35777974   -0.00017879    0.00083636    0.00011505
N   -0.50175361    1.64396416    0.20395842   -0.00020397   -0.00018649   -0.00020687
H    0.12536480    2.48021228    0.14558155    0.00008679    0.00014418    0.00086306
H   -0.07799617    0.70369753    0.42879048   -0.00080488   -0.00012595    0.00083381
