14

C   -6.01763521   -0.82117189   -0.06019261   -0.00030433   -0.00023015   -0.00017608
C   -4.65744701   -0.70097277    0.10884517    0.00017273    0.00016554    0.00005400
H   -6.70795053   -0.00798612   -0.31379144    0.00090218    0.00062024    0.00040005
H   -6.47642555   -1.72190086    0.31261261    0.00000365    0.00056975   -0.00005235
H   -4.18247217   -1.56447834    0.55391380    0.00059144    0.00001781    0.00000997
C   -3.94994016    0.48827939   -0.12121337    0.00023689   -0.00007032    0.00030506
C   -2.60673168    0.52539287    0.11859022   -0.00024467    0.00009886   -0.00008323
H   -4.47066787    1.35737727   -0.49010048   -0.00044370   -0.00096383    0.00034930
H   -2.09544232   -0.31193773    0.62063340   -0.00044238   -0.00044992    0.00003373
C   -1.78096193    1.70377660   -0.04145942    0.00012384    0.00005869   -0.00030293
H   -2.30332819    2.56833488   -0.44570355    0.00040242    0.00008136    0.00016397
N   -0.52652214    1.76252649    0.29139700   -0.00009499    0.00003375    0.00011938
H    0.05167805    2.57722911    0.12347164    0.00092883   -0.00009548    0.00029960
H    0.08458669    1.00824240    0.54892697   -0.00043732   -0.00051856   -0.00044217
