14

C   -6.04675243   -0.64367596   -0.12441621   -0.00008154    0.00000636   -0.00014550
C   -4.67382008   -0.78173829    0.11031182    0.00044926    0.00024726    0.00008838
H   -6.48588874    0.31295025   -0.30513119   -0.00001474    0.00092761    0.00102863
H   -6.65277432   -1.50359813    0.11095229    0.00044968    0.00026995    0.00073172
H   -4.27876988   -1.76032193    0.42222766   -0.00034392   -0.00072273    0.00062624
C   -3.85774871    0.35993828   -0.00942031    0.00007149   -0.00051136   -0.00022012
C   -2.51703107    0.41673431    0.16066047   -0.00055480    0.00003955    0.00005847
H   -4.40756232    1.23764014   -0.31172308   -0.00083103   -0.00037020    0.00002756
H   -1.91052828   -0.48213123    0.49950600   -0.00005477   -0.00037382   -0.00046205
C   -1.84524436    1.70606669   -0.02933630    0.00006692    0.00046508    0.00002536
H   -2.44021823    2.51545721   -0.47746039   -0.00048696    0.00093837   -0.00017839
N   -0.57448594    1.85257693    0.22329417    0.00009371   -0.00032741   -0.00005147
H   -0.20559688    2.77386265    0.01369687   -0.00030094    0.00079600    0.00002671
H    0.08846092    1.20381655    0.67418769    0.00086043    0.00014256    0.00121930
