14

C   -6.06294384   -0.62856683   -0.09968148    0.00008372    0.00015246    0.00002050
C   -4.76459679   -0.76808292    0.14231060    0.00003401   -0.00013212   -0.00011174
H   -6.45977237    0.31636615   -0.63957197   -0.00005244    0.00027406    0.00026507
H   -6.86225016   -1.37205046    0.02293769    0.00039452    0.00014856   -0.00000721
H   -4.36371123   -1.65073317    0.62951894   -0.00092643   -0.00006521    0.00037064
C   -3.79385003    0.30897208   -0.11081129   -0.00032063   -0.00019187    0.00001401
C   -2.44219045    0.36897761    0.25455628    0.00009967   -0.00007067   -0.00003599
H   -4.31765817    1.21916598   -0.58502941    0.00054966   -0.00029967    0.00081198
H   -1.90551662   -0.50388216    0.63500471   -0.00022252    0.00056311    0.00074585
C   -1.87918957    1.62133951   -0.02375822    0.00008737    0.00010085   -0.00017553
H   -2.45627039    2.48520318   -0.32590106   -0.00012109    0.00024571   -0.00031008
N   -0.55465852    1.95548462    0.19357456   -0.00002768    0.00000113    0.00021037
H   -0.27360757    2.93759983    0.08864607    0.00003551    0.00041763   -0.00034669
H    0.09628492    1.27920597    0.56044931    0.00091646    0.00038441   -0.00101209
