14

C   -5.98585248   -0.69837279   -0.23903853   -0.00016143    0.00006948   -0.00018409
C   -4.74535244   -0.70167811    0.23485065    0.00044783   -0.00003617    0.00024113
H   -6.45110939    0.14387767   -0.80796496    0.00090617    0.00158993   -0.00052636
H   -6.53280513   -1.68502062   -0.16874599   -0.00066591    0.00022660   -0.00009954
H   -4.34048134   -1.56707702    0.80852853    0.00028153   -0.00013515   -0.00038150
C   -3.86236346    0.41396186    0.01965072   -0.00029315   -0.00019349    0.00005666
C   -2.53326132    0.43913568    0.31093584   -0.00002508   -0.00019410    0.00030002
H   -4.39664071    1.20850556   -0.51248268    0.00077186    0.00075488   -0.00010813
H   -2.09116402   -0.41997008    0.79672071    0.00015959   -0.00017655   -0.00027316
C   -1.84894860    1.61284309   -0.02725721    0.00024589    0.00012677   -0.00028278
H   -2.39498538    2.33226115   -0.63901061   -0.00056144    0.00024220   -0.00049040
N   -0.54654226    1.86154938    0.10898276   -0.00019723    0.00005977    0.00009554
H   -0.18652654    2.75879690   -0.21364865   -0.00062198   -0.00109655    0.00055016
H    0.13174591    1.29955938    0.67132911   -0.00007980    0.00047503   -0.00155899
