14

C   -6.01532290   -0.71508836   -0.16889681   -0.00010906   -0.00000217    0.00011641
C   -4.68269752   -0.74802104    0.16089177    0.00029393   -0.00004137    0.00002551
H   -6.45249909    0.20311634   -0.62482169    0.00090334    0.00132031    0.00000460
H   -6.63722374   -1.57221761   -0.06885975   -0.00088722   -0.00063176   -0.00122904
H   -4.26063870   -1.69155215    0.51989057    0.00029836   -0.00086863    0.00065966
C   -3.90613896    0.41384786   -0.01778998    0.00003465    0.00004255   -0.00007993
C   -2.54785612    0.44716625    0.22310950   -0.00015368   -0.00023877    0.00000909
H   -4.39546458    1.38449975   -0.35535354   -0.00001926    0.00044269    0.00040442
H   -1.89880867   -0.39486782    0.67161203   -0.00050499    0.00040073    0.00010529
C   -1.83630332    1.67457125    0.04424609    0.00026147    0.00034959   -0.00004138
H   -2.34620042    2.58400411   -0.27260394   -0.00020113    0.00004643   -0.00035149
N   -0.55182122    1.83061707    0.11687731   -0.00021062   -0.00016880   -0.00004182
H   -0.09532506    2.74160136    0.01671575    0.00028826   -0.00065368    0.00060095
H    0.04698598    1.16771457    0.62457908   -0.00085077    0.00098081    0.00003286
