14

C   -6.01263590   -0.77391411   -0.13244149    0.00018711    0.00002069   -0.00014641
C   -4.68792794   -0.70737826    0.15906112   -0.00023482   -0.00004988    0.00003915
H   -6.61430447    0.06328227   -0.60335412   -0.00159226   -0.00031219    0.00054419
H   -6.38452039   -1.81887934   -0.11575475    0.00012548    0.00041316    0.00017889
H   -4.13740348   -1.56746815    0.59491693   -0.00100903    0.00025670    0.00030906
C   -3.92167836    0.47792257   -0.04077142   -0.00006854    0.00002041   -0.00020323
C   -2.57128133    0.50020769    0.22037862    0.00034068   -0.00014703    0.00012556
H   -4.59127686    1.34841420   -0.26512355    0.00048322    0.00002426    0.00003296
H   -2.11754582   -0.47265593    0.49922091   -0.00003304    0.00001478    0.00054540
C   -1.82925314    1.67219346   -0.05362788   -0.00075029   -0.00012963    0.00025414
H   -2.29873510    2.61473495   -0.41138487    0.00064473    0.00012964    0.00028517
N   -0.51315280    1.78895134    0.20909366    0.00043687    0.00012981   -0.00025511
H   -0.08907676    2.72819967    0.07648655    0.00104165   -0.00006999    0.00049700
H    0.06693941    0.95511222    0.51475021    0.00053437    0.00114119    0.00032777
