14

C   -6.04970967   -0.69307226   -0.09461396   -0.00026683   -0.00021025    0.00010644
C   -4.68228110   -0.74873087    0.10697021    0.00026323    0.00016134   -0.00000918
H   -6.48361975    0.25259494   -0.53187505    0.00024013    0.00009837   -0.00061079
H   -6.76485491   -1.51931901   -0.05189214   -0.00036996    0.00012519   -0.00049823
H   -4.24788056   -1.66413296    0.49562861    0.00032767    0.00083622   -0.00015960
C   -3.88964074    0.40363517   -0.08188823    0.00000343   -0.00009586   -0.00009261
C   -2.49972089    0.39264284    0.22580128    0.00002142    0.00015722    0.00000972
H   -4.38030427    1.32939971   -0.40441924    0.00031919   -0.00048557   -0.00004791
H   -1.98202888   -0.57413433    0.42131942   -0.00096180    0.00074481    0.00019334
C   -1.85313109    1.67087308    0.05627699    0.00009224    0.00008936    0.00017076
H   -2.45262846    2.50012769   -0.28451811   -0.00008454   -0.00026782    0.00059444
N   -0.54891034    1.87537273    0.15471607    0.00005888   -0.00010663   -0.00006435
H   -0.12360822    2.81533176    0.26125679   -0.00063484   -0.00092779   -0.00012408
H    0.19043698    1.22206936    0.42557233   -0.00100645    0.00014524   -0.00065888
