14

C   -6.00123716   -0.85702710   -0.10530091   -0.00019405    0.00022828   -0.00012587
C   -4.63337673   -0.69875426    0.22497088   -0.00008507   -0.00023619   -0.00004793
H   -6.38565094    0.02169511   -0.61703177   -0.00067018   -0.00026846   -0.00065362
H   -6.58924400   -1.71266832    0.15252308    0.00159165    0.00016039   -0.00017986
H   -4.08338707   -1.49758499    0.75135240   -0.00064569    0.00033526    0.00049346
C   -3.98155274    0.47240950   -0.14726333   -0.00003054   -0.00015999    0.00020994
C   -2.61889870    0.61693055    0.16088621   -0.00008474   -0.00008258    0.00010543
H   -4.46089719    1.27970468   -0.70942162    0.00062290    0.00008330    0.00047201
H   -2.20333807   -0.21258083    0.77370742    0.00036515   -0.00010869    0.00049865
C   -1.77971812    1.75655336   -0.03243954    0.00014050   -0.00005444   -0.00011285
H   -2.20897344    2.71936364   -0.42678307    0.00000204   -0.00028038    0.00019540
N   -0.53782051    1.67560457    0.21717329   -0.00000827    0.00022426   -0.00004345
H    0.14517201    2.49558659    0.07236824    0.00049026   -0.00003212    0.00029079
H   -0.13206034    0.88952835    0.79737052    0.00138430    0.00062774   -0.00085520
