14

C   -5.96961220   -0.87918224   -0.12815856   -0.00025559   -0.00024521   -0.00020471
C   -4.65305429   -0.72433243    0.15110184    0.00013443    0.00011861    0.00005192
H   -6.43868965    0.11803580   -0.33460036   -0.00028597    0.00036289    0.00086531
H   -6.52488785   -1.88612128   -0.12665845    0.00000634   -0.00108581    0.00094289
H   -3.98409787   -1.58456635    0.34733434   -0.00073133    0.00007254   -0.00033863
C   -3.98744803    0.54586069    0.00244043   -0.00026481    0.00018184    0.00000499
C   -2.62958905    0.60966692    0.16750044    0.00011810   -0.00019366    0.00008604
H   -4.54558350    1.49834265   -0.26348794    0.00085407    0.00009976   -0.00057032
H   -2.08610619   -0.26846083    0.38667260    0.00047750    0.00133781   -0.00037559
C   -1.79152184    1.75749777   -0.08109110    0.00063509    0.00023410    0.00022605
H   -2.22413916    2.76723115   -0.29922256   -0.00084433   -0.00108694   -0.00033168
N   -0.52601721    1.66658463    0.25300492   -0.00032152   -0.00006467   -0.00023264
H    0.05087951    2.52503011    0.02689377    0.00027019   -0.00017596    0.00057783
H   -0.13385368    0.70774171    0.42886400    0.00034582    0.00023437    0.00050540
