14

C   -5.98217370   -0.83199789   -0.02074244   -0.00004762    0.00005342    0.00015651
C   -4.67018431   -0.67518727    0.17184746   -0.00021553    0.00017936   -0.00005412
H   -6.64858220   -0.05422302   -0.46217221   -0.00083656   -0.00018443   -0.00021097
H   -6.44535758   -1.83696974    0.28161521    0.00095126   -0.00014074   -0.00055925
H   -4.09461152   -1.42475873    0.76080444   -0.00013308   -0.00020279   -0.00007319
C   -3.91896645    0.46659214   -0.22241356    0.00016666   -0.00033502   -0.00023248
C   -2.60121409    0.58074480    0.15406366    0.00021388    0.00023018    0.00004860
H   -4.45817539    1.34876913   -0.72113135   -0.00030494   -0.00092120    0.00043419
H   -2.13049686   -0.25457326    0.68147406   -0.00115490    0.00086422   -0.00074191
C   -1.81494892    1.72187111   -0.13997363   -0.00057652   -0.00021456    0.00010555
H   -2.04067055    2.63492434   -0.70221331    0.00012904    0.00005484    0.00084778
N   -0.55198822    1.70131501    0.32826588    0.00060768    0.00007030    0.00005917
H    0.02672324    2.58309567    0.29913109   -0.00030354    0.00004998   -0.00053724
H   -0.25558928    0.96421009    0.99638731   -0.00132071    0.00053530   -0.00026832
