14

C   -5.98439313   -0.79975684    0.00716205    0.00015507    0.00025352    0.00005683
C   -4.66265228   -0.71734455    0.10655253    0.00009052   -0.00005028    0.00003600
H   -6.62528381    0.00910226   -0.43115715   -0.00022760   -0.00071992   -0.00084190
H   -6.45963946   -1.66938171    0.44225615   -0.00015424   -0.00062169   -0.00092554
H   -4.06515309   -1.47639423    0.57752226    0.00061615    0.00027934   -0.00042426
C   -3.94296355    0.45986570   -0.23307656   -0.00009435   -0.00011474    0.00018150
C   -2.61115266    0.58422944    0.12739523    0.00002350    0.00010054    0.00007689
H   -4.43466467    1.32289308   -0.65836831   -0.00035795   -0.00075527   -0.00002431
H   -2.04357280   -0.30662330    0.51352817   -0.00100426    0.00041987   -0.00034653
C   -1.81802511    1.69603536   -0.01455136    0.00003184    0.00004275   -0.00014909
H   -2.30982171    2.70358711   -0.23598670    0.00120938    0.00048296    0.00023880
N   -0.52061692    1.73007955    0.29246004    0.00002021   -0.00012423    0.00010402
H   -0.04393592    2.59916676    0.26142137   -0.00148910   -0.00016465   -0.00060822
H   -0.12290582    0.84305404    0.55810140   -0.00133493    0.00004377   -0.00092227
