14

C   -6.00830827   -0.86064797   -0.14691719    0.00029243    0.00007241    0.00018531
C   -4.69334457   -0.68488724    0.16076249   -0.00000121    0.00009695   -0.00019497
H   -6.54442470    0.06174380   -0.30820646   -0.00037758   -0.00091029    0.00000974
H   -6.63172223   -1.77413572   -0.01186856    0.00022017    0.00129395    0.00047817
H   -4.12627775   -1.59407252    0.30179293    0.00008555    0.00021382    0.00018348
C   -3.96667162    0.51218039   -0.00020854    0.00023914   -0.00007016   -0.00004219
C   -2.58299206    0.49813324    0.18365729   -0.00013941   -0.00003419   -0.00006465
H   -4.40092458    1.44912187   -0.32387194   -0.00140378   -0.00118576   -0.00028523
H   -2.04288680   -0.41172421    0.37856331   -0.00020363    0.00007994    0.00078010
C   -1.77781855    1.73296419   -0.08662808   -0.00002099    0.00014322   -0.00020175
H   -2.35803674    2.58698675   -0.45927824    0.00074194    0.00072442    0.00113166
N   -0.52361754    1.76601594    0.25866210   -0.00008848   -0.00009642    0.00009456
H    0.09155149    2.55613083   -0.03699703   -0.00072856   -0.00113140    0.00086542
H    0.06798734    0.95328287    0.56047748   -0.00151291   -0.00022593   -0.00068509
