14

C   -5.99454276   -0.88973909   -0.11125259    0.00032429   -0.00000498    0.00010453
C   -4.73119269   -0.65693640    0.20364716   -0.00025843   -0.00020004    0.00005887
H   -6.65487321   -0.10605295   -0.59901190   -0.00143915    0.00011026    0.00002805
H   -6.48928551   -1.78451186    0.24506753    0.00088710   -0.00045970    0.00076134
H   -4.11129913   -1.45322262    0.67823203   -0.00054673   -0.00001061   -0.00015412
C   -3.90782081    0.51930715   -0.18051323    0.00014948    0.00008692   -0.00014717
C   -2.60821642    0.56063875    0.24548565   -0.00019175    0.00020890   -0.00015310
H   -4.26711480    1.40148728   -0.65337805   -0.00013035    0.00002594    0.00013696
H   -2.17003240   -0.28443639    0.76339367    0.00066156    0.00030841   -0.00094684
C   -1.83764470    1.68328986   -0.01832093   -0.00017531    0.00033003   -0.00018061
H   -2.18963828    2.67506530   -0.44633454   -0.00018214   -0.00031759    0.00000963
N   -0.47957522    1.73487673    0.18880634    0.00022608   -0.00027219    0.00030651
H    0.06563006    2.57330049   -0.03627761   -0.00012723   -0.00065559   -0.00007929
H   -0.14098222    1.01419471    0.78148450   -0.00045673   -0.00023344   -0.00023205
