14

C   -6.02939793   -0.64658592   -0.10269848    0.00008967    0.00001948    0.00007714
C   -4.65358156   -0.78355440    0.10759051    0.00001539    0.00013306    0.00006079
H   -6.56695136    0.25864469   -0.54438504   -0.00018888   -0.00094529   -0.00026375
H   -6.67001331   -1.56983016   -0.01240458    0.00043096   -0.00065258   -0.00041002
H   -4.22613204   -1.72623855    0.47592519   -0.00065406    0.00056857   -0.00016741
C   -3.87584920    0.37120329   -0.05513964   -0.00014907    0.00001440   -0.00016904
C   -2.50963201    0.43074830    0.22864836   -0.00017051   -0.00011992    0.00004492
H   -4.41361108    1.30129811   -0.33873809    0.00021294   -0.00049371    0.00030377
H   -1.99543638   -0.44960577    0.43630446   -0.00091244    0.00008405   -0.00047661
C   -1.84490731    1.72238404    0.02909795   -0.00014394    0.00000228    0.00012810
H   -2.43054862    2.60158903   -0.35649949    0.00029380   -0.00079865    0.00067818
N   -0.59121741    1.82768419    0.18121348    0.00033424    0.00009316   -0.00022495
H   -0.16607506    2.76939331    0.02151602   -0.00011512    0.00077852    0.00052568
H    0.08393871    1.01899466    0.34128295    0.00055945   -0.00042296    0.00124504
