14

C   -6.03878498   -0.66325698   -0.11426874   -0.00032874    0.00013677    0.00006313
C   -4.71287953   -0.78879819    0.13447104    0.00026824    0.00012114    0.00005983
H   -6.40367921    0.34476241   -0.28771727   -0.00061611   -0.00013840   -0.00093024
H   -6.80277320   -1.41875904   -0.04459310    0.00098873    0.00027311   -0.00032576
H   -4.14212684   -1.73148047    0.37517522    0.00037554   -0.00030814   -0.00045780
C   -3.86210034    0.37718294   -0.04274238    0.00015011   -0.00012397    0.00009220
C   -2.49004320    0.41452426    0.16678838   -0.00017397   -0.00024368   -0.00005879
H   -4.49895714    1.27210104   -0.21055364   -0.00026289    0.00093458   -0.00060406
H   -1.91018011   -0.48306668    0.38628091    0.00050587   -0.00035625    0.00027021
C   -1.86436728    1.66004413   -0.02826459    0.00031607    0.00003656   -0.00003045
H   -2.46101340    2.56699618   -0.36517701   -0.00033639   -0.00156694    0.00054335
N   -0.54018326    1.88260162    0.21540833   -0.00036717    0.00011252    0.00005444
H   -0.26483698    2.86875327    0.18221068    0.00026539    0.00021704   -0.00011490
H    0.04263530    1.14784398    0.60269069    0.00142108    0.00025332   -0.00063778
