14

C   -6.03016992   -0.81427905   -0.18806038   -0.00034280   -0.00020502   -0.00011886
C   -4.71400133   -0.69075067    0.17204842   -0.00014691   -0.00003059    0.00001437
H   -6.68352543    0.07827029   -0.45566466    0.00119516    0.00061554   -0.00020342
H   -6.61573688   -1.70964308    0.04307488   -0.00033307    0.00041741    0.00054637
H   -4.26155112   -1.60861735    0.55450946    0.00047429    0.00053027   -0.00063808
C   -3.90856054    0.46837557   -0.03658265    0.00029617    0.00005361    0.00013632
C   -2.56528031    0.46550936    0.21652702    0.00001324    0.00000898   -0.00002209
H   -4.25694364    1.42520751   -0.46455831    0.00085936   -0.00099567   -0.00079964
H   -1.97469509   -0.35962056    0.64770868   -0.00008874    0.00056962    0.00017101
C   -1.78459851    1.69494092    0.04914337    0.00026979    0.00012004    0.00028830
H   -2.41526862    2.52039394   -0.33141517   -0.00018754   -0.00075443    0.00062356
N   -0.52579520    1.80681425    0.13317065   -0.00003692    0.00002418   -0.00013960
H   -0.03813560    2.70312723    0.05091338   -0.00126239    0.00029345   -0.00098536
H    0.01531631    1.09241854    0.57959864   -0.00121044   -0.00038075   -0.00032577
