14

C   -6.00473527   -0.81268400   -0.09116301   -0.00024823    0.00033001    0.00003640
C   -4.68934282   -0.75990189    0.10231589    0.00016417   -0.00003471   -0.00004294
H   -6.51782839    0.18341417   -0.23732085    0.00078520    0.00026885   -0.00078923
H   -6.66271530   -1.69510706    0.07927595   -0.00104381   -0.00032330   -0.00015549
H   -4.14211610   -1.62535047    0.37820004   -0.00021960   -0.00040120   -0.00031594
C   -3.90281983    0.48626563   -0.08425157    0.00021509   -0.00026864    0.00024386
C   -2.57630447    0.55168141    0.19686397    0.00007759   -0.00024631   -0.00015135
H   -4.32879926    1.43786218   -0.26951250   -0.00037148   -0.00149131    0.00046551
H   -2.03673388   -0.34912510    0.51558828    0.00039796    0.00077297    0.00028238
C   -1.86234584    1.72339913   -0.02480847    0.00043562    0.00006442   -0.00004502
H   -2.28376042    2.68900162   -0.33967509   -0.00055110    0.00125570   -0.00053840
N   -0.51803245    1.75586041    0.23585657   -0.00051901    0.00015344    0.00017749
H    0.08896450    2.58218193    0.03194525    0.00022774   -0.00015271   -0.00125770
H   -0.06293819    0.85261597    0.39855261    0.00031069   -0.00021157   -0.00064551
