14

C   -6.01038365   -0.78845328   -0.08187321   -0.00015417    0.00010078    0.00028312
C   -4.63203153   -0.73669998    0.11370908    0.00034655   -0.00015668   -0.00010283
H   -6.64745434   -0.00160387   -0.45249741    0.00030739    0.00037294   -0.00069468
H   -6.38713794   -1.79766075    0.05787040    0.00125003    0.00059275   -0.00009668
H   -4.09276116   -1.59415840    0.52065174   -0.00017145   -0.00054646    0.00087967
C   -3.93896090    0.50111776   -0.04089793   -0.00015875   -0.00015605   -0.00025331
C   -2.56061200    0.57759960    0.13287579   -0.00010353    0.00014709   -0.00017805
H   -4.54182161    1.34440896   -0.34365745    0.00064821    0.00108690   -0.00028913
H   -2.09603301   -0.27973484    0.59590533    0.00058706    0.00024269    0.00058368
C   -1.83283152    1.71133348   -0.06093414    0.00010176    0.00039742    0.00026975
H   -2.21179532    2.68964656   -0.34359691   -0.00135801   -0.00051257   -0.00065624
N   -0.55527978    1.71566424    0.25027396   -0.00016971   -0.00039529   -0.00010344
H    0.00772953    2.52262059    0.21541784   -0.00012919   -0.00000863    0.00105586
H   -0.18269682    0.84329841    0.53650954    0.00084459    0.00030267    0.00043237
