14

C   -6.05601523   -0.62764671   -0.09713839    0.00004531    0.00007158    0.00004674
C   -4.70554178   -0.76516724    0.10800893    0.00005417   -0.00004258    0.00007231
H   -6.52623093    0.28672993   -0.46655979   -0.00055175    0.00031464   -0.00018542
H   -6.63969074   -1.58391439   -0.17121492    0.00024753    0.00025889   -0.00027016
H   -4.30221697   -1.73432373    0.35578005   -0.00089121    0.00015465   -0.00098015
C   -3.85583782    0.34216113    0.00072008    0.00012502   -0.00004768    0.00016493
C   -2.48573728    0.37929553    0.15966003    0.00023286    0.00013706   -0.00002088
H   -4.32848623    1.28853730   -0.24114728   -0.00025076   -0.00058474    0.00026718
H   -2.02312793   -0.57210452    0.59155958   -0.00057522    0.00076067   -0.00068442
C   -1.84096409    1.67316647   -0.02152681   -0.00007212   -0.00027103   -0.00027459
H   -2.56742860    2.51086159   -0.27671560    0.00126885    0.00057041   -0.00043816
N   -0.56399341    1.89545679    0.19225117   -0.00027824    0.00000584    0.00015216
H   -0.22395491    2.89536267    0.15810389    0.00000335    0.00047303    0.00014781
H    0.21415105    1.27218231    0.60826143    0.00002523   -0.00020968    0.00016575
