     6
  Step:   300            Position(A)                                  Velocity(au)
C        -0.00420020     0.01164232     0.01622534    -0.00003021     0.00010652     0.00004651
N        -0.09494005    -0.05477396     1.30494199     0.00016158    -0.00003023    -0.00005029
H         0.30677150     0.94963319    -0.42821021     0.00051522    -0.00026861    -0.00036750
H         0.12161532    -0.96176544     1.72802492    -0.00040181    -0.00035415    -0.00047759
H         0.02979034     0.80111828     1.85969503    -0.00146331     0.00010732     0.00002858
H        -0.30173345    -0.83633731    -0.59474242    -0.00053549    -0.00033374     0.00096120
