     6
  Step:   300            Position(A)                                  Velocity(au)
C        -0.06366759     0.01489750     0.01464819     0.00005454     0.00010812     0.00006461
N        -0.00301340    -0.05811063     1.30506602    -0.00019492    -0.00000600    -0.00008460
H         0.18378137    -0.87014031    -0.56916266     0.00003732    -0.00056495     0.00092607
H        -0.02666970     0.81055807     1.84952070     0.00108128    -0.00018233     0.00007173
H        -0.25977765    -0.95274791     1.73314441     0.00103748    -0.00043268    -0.00020738
H        -0.30973616     0.97255529    -0.43165814    -0.00009732    -0.00002506    -0.00038469
