6

C       -0.12388244    -0.10220229     0.08621542
N       -0.01740610     0.02222623     1.27574045
H        0.80294963    -0.68037501    -0.87031775
H       -0.31174988     0.59197718     1.99759041
H        0.76631946    -0.14324373     1.83665791
H       -0.75235774     0.47114033    -0.82785272
