6

C       -0.03535615     0.01479779     0.02640533
N       -0.04841832    -0.05435350     1.29243481
H        0.18263682    -0.87219640    -0.56048883
H        0.10673841     0.77353154     1.87029375
H       -0.14352863    -0.95354515     1.76902265
H       -0.26465975     0.96139335    -0.46158948
