     6
  Step:   300            Position(A)                                  Velocity(au)
C        -0.03211659     0.03925118     0.02388817    -0.00007512    -0.00003804    -0.00004028
N        -0.03980757    -0.09792252     1.29696400     0.00002347     0.00011471     0.00000258
H         0.85197409    -0.13830701    -0.57942703     0.00011029    -0.00067163     0.00090940
H         0.78372955     0.19781655     1.82033356     0.00031304     0.00015725    -0.00041782
H        -0.93291023    -0.06924009     1.80573347    -0.00014889    -0.00142144    -0.00012464
H        -0.97987373     0.23299712    -0.46234070     0.00029452     0.00079504     0.00007718
