     6
  Step:   120            Position(A)                                  Velocity(au)
C        -0.03309995    -0.06781152    -0.00595868     0.00009367    -0.00016523    -0.00041132
N        -0.04610643    -0.06156551     1.32905710     0.00000052     0.00014444     0.00028989
H         0.78806993     0.55733689    -0.55061042     0.00018366     0.00109819     0.00065794
H         0.85859116    -0.12498871     1.83340414    -0.00007002    -0.00125863    -0.00021545
H        -0.90704588     0.22733717     1.84454361    -0.00025873     0.00037351     0.00006044
H        -0.91743257     0.33413578    -0.63331989    -0.00097826    -0.00025142     0.00037001
