6

C       -0.02037196     0.02400761     0.05224644
N        0.00085753    -0.07459251     1.36680774
H        0.68097412     0.35379048    -0.85278117
H       -0.94839638    -0.47810792     1.71552451
H       -0.33092640     0.94117026     1.69453003
H       -0.38354192    -0.73626622    -1.28121388
