12

C       -0.04649189    -0.07220799    -0.00289472
N       -0.04475680     0.00356451     1.33745987
H        0.89182855     0.16425045    -0.64589653
H        0.84649481    -0.23691867     1.82052263
H       -0.92537579    -0.29902891     1.79606255
H       -0.84990620     0.51281701    -0.62994507
C       -0.04657920    -0.07368473    -0.00508104
N       -0.04524051     0.00414138     1.33878957
H        0.89578150     0.16595635    -0.64321470
H        0.85031292    -0.23503363     1.82068546
H       -0.92395629    -0.30105829     1.79651607
H       -0.85133447     0.52083599    -0.62566898
