     6
  Step:   120            Position(A)                                  Velocity(au)
C        -0.03861204    -0.01683105    -0.10830506    -0.00003693     0.00000659     0.00057890
N        -0.03601978    -0.12377790     1.41602540     0.00009196     0.00004516    -0.00049638
H         0.87701707    -0.09917297    -0.73091780    -0.00046930    -0.00153646     0.00018302
H         0.58016428     0.67378380     1.74820927    -0.00129741     0.00115646    -0.00073179
H        -0.94299003    -0.08657093     1.93161149    -0.00008541    -0.00144503    -0.00010838
H        -0.76647671     0.76280873    -0.44388107     0.00101435     0.00111901     0.00065682
