12

C       -0.03252736     0.05895920    -0.18029018
N       -0.05191100    -0.00025779     1.48561898
H        0.80894251    -0.55105644    -0.59751956
H        0.85092552    -0.18880534     1.97892275
H       -0.76183387    -0.74983154     1.72753736
H       -1.00200157     0.12093365    -0.71322834
C       -0.03220291     0.05902044    -0.17854111
N       -0.05219710     0.00038098     1.48437475
H        0.80382517    -0.55969227    -0.59379523
H        0.84978967    -0.18466392     1.97661000
H       -0.75559741    -0.76054724     1.72192674
H       -1.00187527     0.12653732    -0.71258100
