     6
  Step:   120            Position(A)                                  Velocity(au)
C        -0.03842307     0.05734045    -0.09535799    -0.00004172    -0.00005899     0.00062225
N        -0.03049156    -0.01405541     1.41243957     0.00006732     0.00005994    -0.00054029
H         0.89757062     0.18501711    -0.69569362    -0.00049570     0.00146832     0.00037106
H         0.52309145    -0.85151784     1.70655217    -0.00148059    -0.00145271    -0.00067942
H        -0.91787912     0.08008451     1.96703006     0.00051260     0.00117631    -0.00019716
H        -0.83414866    -0.57130741    -0.57733458     0.00102530    -0.00132202     0.00059872
