6

C   -0.03458611    0.00391014    0.01188559   -0.00005072   -0.00002386   -0.00021966
N   -0.04335494   -0.04391208    1.30328782   -0.00025748   -0.00012236    0.00021163
H    0.94098380    0.06499344   -0.57464850    0.00032404    0.00021682   -0.00022657
H    0.80938218   -0.13104203    1.86653995    0.00198500    0.00072099    0.00027262
H   -0.93637705   -0.14338467    1.83515430    0.00100450    0.00065812   -0.00100625
H   -1.01232125    0.10327929   -0.48757986    0.00086893    0.00038876    0.00063673
