14

C   -6.04594226   -0.72244206   -0.06197392   -0.00029528   -0.00015606   -0.00013937
C   -4.66357859   -0.76362058    0.09338796    0.00036285   -0.00001430    0.00013627
H   -6.65385889    0.19884644   -0.28482501   -0.00096362    0.00003715    0.00061879
H   -6.51930671   -1.65036966    0.35763115    0.00046122   -0.00081952    0.00099990
H   -4.21157989   -1.67779863    0.53844913   -0.00052300    0.00024573    0.00026847
C   -3.86896819    0.40333531   -0.13687135    0.00001487    0.00040744   -0.00029044
C   -2.56163905    0.51262293    0.16389469   -0.00023924   -0.00022796    0.00009846
H   -4.39258250    1.27574479   -0.63092209    0.00025963    0.00066565   -0.00006954
H   -2.01384285   -0.25847837    0.69358004    0.00067165    0.00066372   -0.00054708
C   -1.81159962    1.71051740   -0.00334141    0.00022345    0.00002265    0.00007107
H   -2.28966430    2.68473104   -0.33789268   -0.00059338   -0.00047075    0.00026502
N   -0.57323691    1.78904206    0.25775030    0.00000548   -0.00006114   -0.00004562
H   -0.09681824    2.66362087    0.11311101    0.00008530    0.00089244   -0.00009386
H    0.00005724    0.95420134    0.32632759   -0.00026817   -0.00074334    0.00066997
