     6
  Step:   300            Position(A)                                  Velocity(au)
C        -0.04345064     0.03053258     0.02763663    -0.00010032    -0.00007335    -0.00004672
N        -0.04049923    -0.07081238     1.29086550     0.00000204     0.00020523     0.00004249
H         0.87904333    -0.10735941    -0.51773164     0.00028387    -0.00036017     0.00072496
H         0.84156483     0.01799931     1.79621342     0.00031655    -0.00062708    -0.00026231
H        -0.89152404    -0.21117643     1.84589694     0.00031849    -0.00146777    -0.00007556
H        -0.96145394     0.25097360    -0.49997111     0.00024825     0.00047705    -0.00042087
