    14
  Step:   600            Position(A)                                  Velocity(au)
C        -5.15840951    -1.30064127     0.73776341     0.00039647     0.00007899    -0.00072936
C        -5.04075467    -0.14152422    -0.07951330     0.00008705    -0.00014319    -0.00016914
H        -4.39580301    -1.70217702     1.50805761     0.00028178     0.00066536     0.00079663
H        -5.92812892    -1.99042424     0.31106163    -0.00054828     0.00005501     0.00077486
H        -5.83362945    -0.02350851    -0.74778986     0.00011239    -0.00004237    -0.00082980
C        -4.01164110     0.78598044    -0.62851402     0.00021800     0.00016501     0.00103050
C        -2.69751855     0.61526896    -0.48078412    -0.00016521    -0.00007300     0.00043065
H        -4.31247347     1.81153625    -1.00899809     0.00077478     0.00184623    -0.00121016
H        -2.41925190    -0.27616724     0.18910566    -0.00135161     0.00218679     0.00024872
C        -1.56242771     1.60659751    -0.30700653    -0.00030764    -0.00061430     0.00043201
H        -1.07229707     2.38703208    -0.93467187     0.00313728    -0.00212821    -0.00003573
N        -1.03358666     1.51296126     0.87527476    -0.00043536     0.00020971    -0.00080773
H        -0.20346021     2.04995670     1.15039093    -0.00006287    -0.00062881    -0.00112618
H        -1.34600542     0.70321536     1.41678357     0.00098170     0.00212035     0.00075383
