     6
  Step:   300            Position(A)                                  Velocity(au)
C        -0.01950613     0.01582012     0.02445295    -0.00002868     0.00003104     0.00017071
N        -0.04646716    -0.04590966     1.29201971     0.00017930    -0.00003008    -0.00016754
H         0.21950138     0.93078869    -0.52076222    -0.00159462    -0.00003341    -0.00060080
H        -0.18100335    -0.96712891     1.73261352    -0.00268624     0.00056292     0.00043398
H        -0.17917695     0.74804203     1.91685041     0.00059164    -0.00043665     0.00054486
H        -0.19410227    -0.93202530    -0.48238670     0.00153942    -0.00004478    -0.00008405
