     6
  Step:   300            Position(A)                                  Velocity(au)
C        -0.05134123     0.00180063     0.02697158     0.00005173    -0.00005476     0.00008948
N        -0.04922644    -0.05295551     1.28896487    -0.00019760     0.00004940    -0.00008455
H         0.15418017     0.98624607    -0.38584831    -0.00161437     0.00020106    -0.00023840
H         0.06138315    -0.90285008     1.84221421    -0.00050369     0.00040998     0.00052630
H         0.16387264     0.79522746     1.83705497     0.00273099    -0.00074058     0.00038095
H        -0.29650992    -0.83397386    -0.63467273     0.00151649     0.00009554    -0.00056015
