12

C       -0.02863371     0.03807580     0.01988035
N       -0.04305848    -0.05622981     1.30853306
H        0.65660426    -0.58249235    -0.63788546
H        0.67375629     0.39637387     1.92020520
H       -0.76922571    -0.62186965     1.82485867
H       -0.83450733     0.46588151    -0.63586072
C       -0.02831662     0.03794389     0.02039790
N       -0.04313925    -0.05616689     1.30787270
H        0.65139326    -0.58951113    -0.63535705
H        0.66883190     0.40391055     1.91856374
H       -0.76467759    -0.62951500     1.82346267
H       -0.83157614     0.47370647    -0.63234227
