12

C       -0.02555101     0.09216958     0.01630544
N       -0.03728352    -0.09980129     1.32183527
H        0.73755852    -0.45496542    -0.65015503
H        0.77716351     0.28513208     1.83820878
H       -0.96412596    -0.13150892     1.82026070
H       -0.94096195    -0.07984049    -0.67924330
C       -0.02512249     0.09353129     0.01451989
N       -0.03714534    -0.10036769     1.32315816
H        0.73761679    -0.46417886    -0.64701088
H        0.77560399     0.28973118     1.83762799
H       -0.96493323    -0.13638269     1.81867300
H       -0.94567999    -0.07870769    -0.67732559
