6

C       -0.21076806     0.40870987     0.03772170
N        0.14316366    -0.41976425     1.37700256
H       -0.93359833    -0.13691099    -0.22061727
H       -0.59615849     1.54902360    -0.16699493
H        0.46290051    -0.78175213     2.30229091
H        0.37522076    -0.33726216    -0.60808329
