12

C       -0.03529401     0.05525755    -0.04542419
N       -0.04994749    -0.00492789     1.37081523
H        0.66892004    -0.68739979    -0.53110695
H        0.82523300    -0.02573211     1.96096642
H       -0.67379730    -0.79630954     1.66211508
H       -0.91864096     0.24969710    -0.70798692
C       -0.03487687     0.05504760    -0.04220952
N       -0.05030788    -0.00509454     1.36784108
H        0.66265643    -0.69316258    -0.52827255
H        0.82305900    -0.01664300     1.95924060
H       -0.66825297    -0.80244443     1.66084136
H       -0.91571024     0.25732332    -0.70479801
