     6
  Step:   120            Position(A)                                  Velocity(au)
C        -0.03215768     0.06687020    -0.00425667     0.00006477     0.00024897    -0.00037954
N        -0.04335596    -0.09800769     1.34525651    -0.00004169    -0.00012484     0.00028402
H         0.85390161    -0.24175614    -0.68834945     0.00034625    -0.00140156     0.00025289
H         0.84151278     0.13713979     1.82967767     0.00023633     0.00078186     0.00013667
H        -0.96897706    -0.02765747     1.81769769     0.00006628    -0.00047583    -0.00013143
H        -0.95368477     0.02760661    -0.71043723    -0.00084141    -0.00013631     0.00031763
