6

C       -0.06341387    -0.16445513     0.05865290
N       -0.07764222     0.15215397     1.35380266
H        1.06605909     0.23155186    -0.49894584
H        0.71280469    -0.57644659     1.24780587
H       -0.75348454    -0.46050512     1.76883025
H       -0.40324509    -0.01900188    -1.13757834
