     6
  Step:   300            Position(A)                                  Velocity(au)
C        -0.05517302     0.01984675     0.01538233     0.00004798     0.00007698     0.00002388
N        -0.02713228    -0.05575582     1.30098222    -0.00016070    -0.00000313    -0.00003007
H         0.16999634    -0.89504333    -0.52597859     0.00010723    -0.00022451     0.00067929
H         0.08896341     0.77704184     1.89116116     0.00100765    -0.00031822     0.00007323
H        -0.14530193    -0.98152685     1.72183220     0.00071805    -0.00015993    -0.00020412
H        -0.29211108     0.96807195    -0.45715114    -0.00017158    -0.00017115    -0.00041507
