6

C       -0.04037145    -0.02201044    -0.11252514
N       -0.05665211    -0.12576216     1.41967238
H        0.75019402     0.70983130    -0.40557833
H        0.85337454    -0.14307329     1.94445075
H       -0.58359306     0.74160020     1.70265547
H       -0.96457646     0.03177789    -0.73690211
