     6
  Step:   300            Position(A)                                  Velocity(au)
C        -0.03337066     0.01359388     0.01489532     0.00000756    -0.00003239     0.00014943
N        -0.04556671    -0.04838483     1.30026310    -0.00000747     0.00004708    -0.00010512
H         0.89963931    -0.01920115    -0.54022687    -0.00026902     0.00094129    -0.00032605
H         0.79184497    -0.11186428     1.88436016    -0.00012005    -0.00114085     0.00011704
H        -0.91031186    -0.12385984     1.84128668     0.00014762     0.00076761     0.00011922
H        -0.96325145     0.09554344    -0.53980112     0.00025523    -0.00083628    -0.00023005
