6

C   -0.03057584    0.00202629   -0.00460401   -0.00007961    0.00004552   -0.00020285
N   -0.04910495   -0.04682178    1.31130176   -0.00015467    0.00003983    0.00014798
H    0.91722202    0.03965689   -0.54376453    0.00043726   -0.00026123   -0.00030209
H    0.85743802   -0.13416852    1.91691848    0.00058301   -0.00027186    0.00057388
H   -0.91142646   -0.10009778    1.82694080    0.00127330   -0.00026230   -0.00073559
H   -1.02944807    0.15133797   -0.47550242    0.00080437   -0.00030059    0.00082451
