     6
  Step:   120            Position(A)                                  Velocity(au)
C        -0.03938195     0.07801304    -0.00016554    -0.00005037     0.00025317    -0.00039936
N        -0.04220154    -0.03885645     1.33901907     0.00000725    -0.00016900     0.00028694
H         0.85443823    -0.24169227    -0.66747556     0.00094972    -0.00034801     0.00023853
H         0.84016210    -0.35174918     1.79958698     0.00034503    -0.00006558     0.00024627
H        -0.94910615    -0.14899130     1.81081717    -0.00018964     0.00084464    -0.00010954
H        -0.90271897    -0.31699923    -0.65639482    -0.00060570    -0.00109936     0.00039614
