6

C       -0.03141213     0.01936902     0.01761581
N       -0.04937379    -0.05827879     1.29708721
H        0.02477015     1.00026005    -0.45114701
H       -0.26348725    -0.93395483     1.77707830
H        0.16560887     0.74473941     1.89449934
H       -0.07939796    -0.90174338    -0.56308675
