6

C   -0.04026950    0.00006824    0.03647561   -0.00015161    0.00002979    0.00001435
N   -0.03298156   -0.03981895    1.28314455    0.00011160    0.00001956    0.00006907
H    0.88838053    0.07782582   -0.52846397    0.00086439   -0.00003336   -0.00026231
H    0.75347475   -0.14435813    1.84592279    0.00002263   -0.00018183   -0.00054445
H   -0.95400357   -0.17453465    1.82264293   -0.00094251   -0.00013410    0.00012668
H   -0.96261286    0.12381367   -0.51373372    0.00031124   -0.00027744   -0.00045071
