     6
  Step:   300            Position(A)                                  Velocity(au)
C        -0.04761401     0.00210391     0.01832486     0.00005294    -0.00007717     0.00013579
N        -0.04159507    -0.04918850     1.29648911    -0.00017194     0.00003529    -0.00013574
H         0.22731981     0.97024299    -0.40566648    -0.00134796     0.00024963     0.00007713
H         0.02094673    -0.93237878     1.80450447    -0.00042262     0.00048082     0.00048095
H         0.01887222     0.82402285     1.83283272     0.00232954    -0.00035340     0.00043149
H        -0.33467769    -0.87317927    -0.57447945     0.00119960     0.00005213    -0.00072137
