6

C       -0.03092566    -0.05420133    -0.02738334
N       -0.03854558    -0.01053493     1.35521896
H        0.82542333     0.43312349    -0.61248202
H        0.79932259    -0.44580998     1.82910968
H       -0.96774240     0.03020571     1.85971231
H       -0.96580212     0.10496547    -0.69059242
