     6
  Step:   600            Position(A)                                  Velocity(au)
C        -0.09602259    -0.08260987    -0.36778385     0.00032363     0.00046634     0.00020115
N         0.04087963     0.06602391     1.66994429    -0.00032666    -0.00001794    -0.00006429
H        -1.24997561    -0.47462556    -0.99269614    -0.00311941    -0.00079859    -0.00016331
H        -1.01819116    -0.10262844     1.77630606     0.00051127    -0.00166363     0.00268398
H         0.87605768     0.32913662     2.21092854     0.00054176     0.00004012    -0.00414866
H         0.75475179    -0.35474448    -0.92565179     0.00274926    -0.00288542     0.00012451
