     6
  Step:   300            Position(A)                                  Velocity(au)
C        -0.04987027     0.02266476     0.02583337     0.00008534     0.00006483     0.00008969
N        -0.03509850    -0.05717906     1.28901137    -0.00025344    -0.00000628    -0.00013405
H         0.11100955    -0.92583086    -0.49700232    -0.00144919    -0.00019291     0.00037819
H        -0.00124349     0.77429273     1.88035213    -0.00020456    -0.00047331     0.00066958
H        -0.01548519    -0.97537286     1.76849709     0.00282409     0.00013061     0.00032403
H        -0.22520821     0.98163982    -0.48019276     0.00133462    -0.00014972    -0.00057780
