     6
  Step:   120            Position(A)                                  Velocity(au)
C        -0.03543695    -0.03899484    -0.01474558    -0.00011156     0.00000527     0.00046990
N        -0.04205304    -0.10099867     1.33634697     0.00010211     0.00011514    -0.00043128
H         0.85038841    -0.01689509    -0.71343709    -0.00027293    -0.00133613     0.00042784
H         0.63439441     0.59919943     1.73468693    -0.00080287     0.00055812    -0.00000374
H        -0.92488890    -0.11941072     1.91218144     0.00009371    -0.00158180    -0.00043846
H        -0.76616805     0.73550404    -0.43601795     0.00089256     0.00069694     0.00040832
