6

C        0.01337184    -0.06513048    -0.02798025
N        0.02551041     0.03471842     1.38054399
H        0.58020915    -0.99727966    -0.67131953
H       -0.73067306     0.53732247     1.71855828
H       -0.96480221    -0.33791292     1.80515448
H       -0.61170616     0.42234129    -0.81092916
