    14
  Step:   600            Position(A)                                  Velocity(au)
C        -5.04191126     0.16529295     0.75073652    -0.00010368    -0.00017502    -0.00008735
C        -4.17103813    -0.64033554    -0.00456793    -0.00001535     0.00017217    -0.00003716
H        -5.36449037     1.17928291     0.44436028    -0.00220957    -0.00158972    -0.00274489
H        -5.30623736    -0.28314279     1.70745265     0.00225803     0.00213576     0.00074013
H        -3.89956839    -1.59891698     0.26352805     0.00042291     0.00005270    -0.00052586
C        -3.84380848     0.14870533    -1.17357902     0.00044592     0.00013794     0.00054379
C        -3.08131444     1.18670844    -0.68038778    -0.00018369     0.00004665    -0.00023437
H        -4.33693429     0.15618891    -2.18513296     0.00000542     0.00027876     0.00095124
H        -2.82343457     2.03286797    -1.26508223    -0.00288957     0.00067099     0.00111674
C        -2.24261568     1.42113371     0.56629001     0.00059047     0.00002892    -0.00010049
H        -2.10508896     2.42798964     1.08876555     0.00014498    -0.00102780    -0.00004211
N        -1.14176234     0.75213092     0.71917483    -0.00034192    -0.00034976    -0.00000176
H        -0.47703186     0.83251082     1.51966841    -0.00151582     0.00147341    -0.00041450
H        -0.76917625     0.25506317    -0.10168257    -0.00020738     0.00035587    -0.00006236
