6

C       -0.03886319     0.02123682     0.01505536
N       -0.04420509    -0.05890567     1.30010857
H       -0.00416940    -0.88472855    -0.58164414
H       -0.10491336     0.74886478     1.92559066
H        0.05453007    -0.94672823     1.79899927
H       -0.08098854     0.97832495    -0.49705416
