     6
  Step:   120            Position(A)                                  Velocity(au)
C        -0.04007735    -0.01596439    -0.21002459     0.00001483     0.00000502     0.00006550
N        -0.05254413    -0.14363150     1.50583791    -0.00004281    -0.00010478     0.00000741
H         0.92067858     0.41237545    -0.56359034     0.00007196     0.00084227     0.00062330
H         0.83264299     0.27476545     1.89866888     0.00020594    -0.00007206    -0.00029379
H        -0.76601705     0.55070317     1.79146292     0.00077495     0.00110698    -0.00120735
H        -0.99249925     0.27855124    -0.65748223    -0.00063457    -0.00048089    -0.00000563
